*Heading
** Job name: J2D_N24_N24_A07_regular_jump_coprime Model name: Model-1
** Generated by: Abaqus/CAE 2024
*Preprint, echo=NO, model=NO, history=NO, contact=NO
**
** PARTS
**
*Part, name=part_plate
*Node
      1, 0.0500000007, 0.00200000009
      2, 0.0500000007,           0.
      3, 0.0520000011,           0.
      4, 0.0520000011, 0.00200000009
      5, 0.0500000007, 0.00300000003
      6, 0.0520000011, 0.00300000003
      7, 0.0480000004, 0.00200000009
      8, 0.0480000004,           0.
      9, 0.0480000004, 0.00300000003
     10, 0.0460000001, 0.00200000009
     11, 0.0460000001,           0.
     12, 0.0460000001, 0.00300000003
     13, 0.0439999998, 0.00200000009
     14, 0.0439999998,           0.
     15, 0.0439999998, 0.00300000003
     16, 0.0419999994, 0.00200000009
     17, 0.0419999994,           0.
     18, 0.0419999994, 0.00300000003
     19, 0.0399999991, 0.00200000009
     20, 0.0399999991,           0.
** ... 715 like lines cut
*Element, type=CPE4T
 1,   1,  82, 424,  93
 2,  82,  83, 425, 424
 3,  83,  84, 426, 425
 4,  84,   2,  85, 426
 5,  93, 424, 427,  92
 6, 424, 425, 428, 427
 7, 425, 426, 429, 428
 8, 426,  85,  86, 429
 9,  92, 427, 430,  91
10, 427, 428, 431, 430
11, 428, 429, 432, 431
12, 429,  86,  87, 432
13,  91, 430,  90,   4
14, 430, 431,  89,  90
15, 431, 432,  88,  89
16, 432,  87,   3,  88
17,   5,  94, 433,  98
18,  94,   1,  93, 433
19,  98, 433, 434,  97
20, 433,  93,  92, 434
** ... 604 like lines cut
*Nset, nset=section_all, generate
   1,  735,    1
*Elset, elset=section_all, generate
   1,  624,    1
*Nset, nset=set_body_heat_00
  73,  75,  76,  80, 394, 404, 405, 406, 416, 417, 418, 419, 730, 731, 732
*Elset, elset=set_body_heat_00, generate
 609,  616,    1
*Nset, nset=set_body_heat_01
  70,  72,  73,  75, 381, 391, 392, 393, 394, 395, 396, 397, 709, 710, 711
*Elset, elset=set_body_heat_01, generate
 569,  576,    1
*Nset, nset=set_body_heat_02
  67,  69,  70,  72, 368, 378, 379, 380, 381, 382, 383, 384, 697, 698, 699
*Elset, elset=set_body_heat_02, generate
 545,  552,    1
*Nset, nset=set_body_heat_03
  64,  66,  67,  69, 355, 365, 366, 367, 368, 369, 370, 371, 685, 686, 687
*Elset, elset=set_body_heat_03, generate
 521,  528,    1
*Nset, nset=set_body_heat_04
  61,  63,  64,  66, 342, 352, 353, 354, 355, 356, 357, 358, 673, 674, 675
*Elset, elset=set_body_heat_04, generate
 497,  504,    1
*Nset, nset=set_body_heat_05
  58,  60,  61,  63, 329, 339, 340, 341, 342, 343, 344, 345, 661, 662, 663
*Elset, elset=set_body_heat_05, generate
 473,  480,    1
*Nset, nset=set_body_heat_06
  55,  57,  58,  60, 316, 326, 327, 328, 329, 330, 331, 332, 649, 650, 651
*Elset, elset=set_body_heat_06, generate
 449,  456,    1
*Nset, nset=set_body_heat_07
  52,  54,  55,  57, 303, 313, 314, 315, 316, 317, 318, 319, 637, 638, 639
*Elset, elset=set_body_heat_07, generate
 425,  432,    1
*Nset, nset=set_body_heat_08
  49,  51,  52,  54, 290, 300, 301, 302, 303, 304, 305, 306, 625, 626, 627
*Elset, elset=set_body_heat_08, generate
 401,  408,    1
*Nset, nset=set_body_heat_09
  46,  48,  49,  51, 277, 287, 288, 289, 290, 291, 292, 293, 613, 614, 615
*Elset, elset=set_body_heat_09, generate
 377,  384,    1
*Nset, nset=set_body_heat_10
  43,  45,  46,  48, 264, 274, 275, 276, 277, 278, 279, 280, 601, 602, 603
*Elset, elset=set_body_heat_10, generate
 353,  360,    1
*Nset, nset=set_body_heat_11
  40,  42,  43,  45, 251, 261, 262, 263, 264, 265, 266, 267, 589, 590, 591
*Elset, elset=set_body_heat_11, generate
 329,  336,    1
*Nset, nset=set_body_heat_12
  37,  39,  40,  42, 238, 248, 249, 250, 251, 252, 253, 254, 577, 578, 579
*Elset, elset=set_body_heat_12, generate
 305,  312,    1
*Nset, nset=set_body_heat_13
  34,  36,  37,  39, 225, 235, 236, 237, 238, 239, 240, 241, 565, 566, 567
*Elset, elset=set_body_heat_13, generate
 281,  288,    1
*Nset, nset=set_body_heat_14
  31,  33,  34,  36, 212, 222, 223, 224, 225, 226, 227, 228, 553, 554, 555
*Elset, elset=set_body_heat_14, generate
 257,  264,    1
*Nset, nset=set_body_heat_15
  28,  30,  31,  33, 199, 209, 210, 211, 212, 213, 214, 215, 541, 542, 543
*Elset, elset=set_body_heat_15, generate
 233,  240,    1
*Nset, nset=set_body_heat_16
  25,  27,  28,  30, 186, 196, 197, 198, 199, 200, 201, 202, 529, 530, 531
*Elset, elset=set_body_heat_16, generate
 209,  216,    1
*Nset, nset=set_body_heat_17
  22,  24,  25,  27, 173, 183, 184, 185, 186, 187, 188, 189, 517, 518, 519
*Elset, elset=set_body_heat_17, generate
 185,  192,    1
*Nset, nset=set_body_heat_18
  19,  21,  22,  24, 160, 170, 171, 172, 173, 174, 175, 176, 505, 506, 507
*Elset, elset=set_body_heat_18, generate
 161,  168,    1
*Nset, nset=set_body_heat_19
  16,  18,  19,  21, 147, 157, 158, 159, 160, 161, 162, 163, 493, 494, 495
*Elset, elset=set_body_heat_19, generate
 137,  144,    1
*Nset, nset=set_body_heat_20
  13,  15,  16,  18, 134, 144, 145, 146, 147, 148, 149, 150, 481, 482, 483
*Elset, elset=set_body_heat_20, generate
 113,  120,    1
*Nset, nset=set_body_heat_21
  10,  12,  13,  15, 121, 131, 132, 133, 134, 135, 136, 137, 469, 470, 471
*Elset, elset=set_body_heat_21, generate
 89,  96,   1
*Nset, nset=set_body_heat_22
   7,   9,  10,  12, 108, 112, 113, 114, 121, 122, 123, 124, 457, 458, 459
*Elset, elset=set_body_heat_22, generate
 65,  72,   1
*Nset, nset=set_body_heat_23
   1,   5,   7,   9,  94, 105, 106, 107, 108, 109, 110, 111, 445, 446, 447
*Elset, elset=set_body_heat_23, generate
 41,  48,   1
*Elset, elset=_surf_external_all_S2, internal
   4,   8,  12,  16,  28,  32,  36,  40,  76,  80,  84,  88, 100, 104, 108, 112
 124, 128, 132, 136, 148, 152, 156, 160, 172, 176, 180, 184, 196, 200, 204, 208
 220, 224, 228, 232, 244, 248, 252, 256, 268, 272, 276, 280, 292, 296, 300, 304
 316, 320, 324, 328, 340, 344, 348, 352, 364, 368, 372, 376, 388, 392, 396, 400
 412, 416, 420, 424, 436, 440, 444, 448, 460, 464, 468, 472, 484, 488, 492, 496
 508, 512, 516, 520, 532, 536, 540, 544, 556, 560, 564, 568, 580, 584, 588, 592
 596, 600, 604, 608, 618, 620, 622, 624
*Elset, elset=_surf_external_all_S3, internal
  13,  14,  15,  16,  23,  24, 605, 606, 607, 608, 623, 624
*Elset, elset=_surf_external_all_S4, internal
  17,  19,  21,  23,  41,  43,  45,  47,  49,  53,  57,  61,  65,  67,  69,  71
  89,  91,  93,  95, 113, 115, 117, 119, 137, 139, 141, 143, 161, 163, 165, 167
 185, 187, 189, 191, 209, 211, 213, 215, 233, 235, 237, 239, 257, 259, 261, 263
 281, 283, 285, 287, 305, 307, 309, 311, 329, 331, 333, 335, 353, 355, 357, 359
 377, 379, 381, 383, 401, 403, 405, 407, 425, 427, 429, 431, 449, 451, 453, 455
 473, 475, 477, 479, 497, 499, 501, 503, 521, 523, 525, 527, 545, 547, 549, 551
 569, 571, 573, 575, 609, 611, 613, 615
*Surface, type=ELEMENT, name=surf_external_all
_surf_external_all_S2, S2
_surf_external_all_S3, S3
_surf_external_all_S4, S4
** Section: property_section_all
*Solid Section, elset=section_all, material="SS316L For AM"
,
*End Part
**  
**
** ASSEMBLY
**
*Assembly, name=Assembly
**  
*Instance, name=inst_plate, part=part_plate
*End Instance
**  
*Nset, nset=_PickedSet4, internal, instance=inst_plate
 79,
*Nset, nset=_PickedSet5, internal, instance=inst_plate
 3,
*End Assembly
** 
** MATERIALS
** 
** Material property of AISI Type 316L Steel in Additive Manufacturing
** 
*Material, name="SS316L For AM"
*Conductivity
  14.,  20.
  16., 100.
  17., 200.
  19., 400.
 21.5, 600.
  24., 800.
 26.5,1000.
  29.,1200.
  31.,1375.
  29.,1400.
  29.,1723.
  29.,3000.
*Density
7980.,  20.
7950., 100.
7920., 200.
7860., 400.
7800., 600.
7740., 800.
7680.,1000.
7620.,1200.
7580.,1375.
7450.,1400.
7300.,1723.
7200.,3000.
*Elastic
 2.08e+11,  0.3,  20.
 2.02e+11,  0.3, 100.
 1.94e+11,  0.3, 200.
 1.78e+11,  0.3, 400.
 1.62e+11,  0.3, 600.
 1.42e+11,  0.3, 800.
 1.12e+11,  0.3,1000.
  7.5e+10,  0.3,1200.
  1.5e+10,  0.3,1375.
    1e+08,  0.3,1400.
    1e+07,  0.3,1723.
    1e+06,  0.3,3000.
*Expansion
 1.48e-05,  20.
  1.6e-05, 100.
 1.68e-05, 200.
 1.78e-05, 400.
 1.87e-05, 600.
 1.96e-05, 800.
 2.02e-05,1000.
 2.08e-05,1200.
 2.15e-05,1375.
  2.2e-05,1400.
  2.2e-05,1723.
  2.2e-05,3000.
*Latent Heat
256000.,1375.,1400.
*Plastic
 5.8e+08,   0.,  20.
 5.3e+08,   0., 100.
 4.8e+08,   0., 200.
 4.1e+08,   0., 400.
 3.5e+08,   0., 600.
 2.1e+08,   0., 800.
   9e+07,   0.,1000.
   3e+07,   0.,1200.
   2e+06,   0.,1375.
  10000.,   0.,1400.
   5000.,   0.,1723.
   1000.,   0.,3000.
*Specific Heat
450.,  20.
480., 100.
505., 200.
540., 400.
570., 600.
600., 800.
635.,1000.
670.,1200.
700.,1375.
750.,1400.
760.,1723.
800.,3000.
** 
** PHYSICAL CONSTANTS
** 
*Physical Constants, absolute zero=-273.15, stefan boltzmann=5.67e-08
** 
** BOUNDARY CONDITIONS
** 
** Name: bc_point_xy Type: Displacement/Rotation
*Boundary
_PickedSet4, 1, 1
_PickedSet4, 2, 2
** Name: bc_point_y Type: Displacement/Rotation
*Boundary
_PickedSet5, 2, 2
** 
** PREDEFINED FIELDS
** 
** Name: predefined_temperature_all   Type: Temperature
*Initial Conditions, type=TEMPERATURE
inst_plate.section_all, 20.
** ----------------------------------------------------------------
** 
** STEP: step_scan_00
** 
*Step, name=step_scan_00, nlgeom=YES, inc=999999
*Coupled Temperature-displacement, creep=none, deltmx=400.
0.001, 0.2, 2e-30, 0.01
** 
** LOADS
** 
** Name: load_body_hflux_00   Type: Body heat flux
*Dflux
inst_plate.set_body_heat_00, BF, 8e+10
** 
** INTERACTIONS
** 
** Interaction: film_external_cooling
*Sfilm
inst_plate.surf_external_all, F, 20., 46.5
** Interaction: rad_external_ambient
*Sradiate
inst_plate.surf_external_all, R, 20., 0.285
** 
** OUTPUT REQUESTS
** 
*Restart, write, frequency=0
** 
** FIELD OUTPUT: F-Output-1
** 
*Output, field
*Node Output
NT, RF, U
*Element Output, directions=YES
HFL, PEEQ, S
** 
** HISTORY OUTPUT: H-Output-1
** 
*Output, history
*Energy Output
ALLAE, ALLIE, ALLKE, ALLPD, ALLSD, ALLSE, ALLWK, ETOTAL
*End Step
** ----------------------------------------------------------------
** 
** STEP: step_cool_00
** 
*Step, name=step_cool_00, nlgeom=YES, inc=999999
*Coupled Temperature-displacement, creep=none, deltmx=400.
0.01, 3.4, 3.4e-30, 0.2
** 
** LOADS
** 
** Name: load_body_hflux_00   Type: Body heat flux
*Dflux, op=NEW
** 
** OUTPUT REQUESTS
** 
*Restart, write, frequency=0
** 
** FIELD OUTPUT: F-Output-1
** 
*Output, field
*Node Output
NT, RF, U
*Element Output, directions=YES
HFL, PEEQ, S
** 
** HISTORY OUTPUT: H-Output-1
** 
*Output, history
*Energy Output
ALLAE, ALLIE, ALLKE, ALLPD, ALLSD, ALLSE, ALLWK, ETOTAL
*End Step
** ----------------------------------------------------------------
** 
** STEP: step_scan_01
** 
*Step, name=step_scan_01, nlgeom=YES, inc=999999
*Coupled Temperature-displacement, creep=none, deltmx=400.
0.001, 0.2, 2e-30, 0.01
** 
** LOADS
** 
** Name: load_body_hflux_01   Type: Body heat flux
*Dflux
inst_plate.set_body_heat_11, BF, 8e+10
** 
** OUTPUT REQUESTS
** 
*Restart, write, frequency=0
** 
** FIELD OUTPUT: F-Output-1
** 
*Output, field
*Node Output
NT, RF, U
*Element Output, directions=YES
HFL, PEEQ, S
** 
** HISTORY OUTPUT: H-Output-1
** 
*Output, history
*Energy Output
ALLAE, ALLIE, ALLKE, ALLPD, ALLSD, ALLSE, ALLWK, ETOTAL
*End Step
** ----------------------------------------------------------------
** 
** STEP: step_cool_01
** 
*Step, name=step_cool_01, nlgeom=YES, inc=999999
*Coupled Temperature-displacement, creep=none, deltmx=400.
0.01, 3.4, 3.4e-30, 0.2
** 
** LOADS
** 
** Name: load_body_hflux_01   Type: Body heat flux
*Dflux, op=NEW
** 
** OUTPUT REQUESTS
** 
*Restart, write, frequency=0
** 
** FIELD OUTPUT: F-Output-1
** 
*Output, field
*Node Output
NT, RF, U
*Element Output, directions=YES
HFL, PEEQ, S
** 
** HISTORY OUTPUT: H-Output-1
** 
*Output, history
*Energy Output
ALLAE, ALLIE, ALLKE, ALLPD, ALLSD, ALLSE, ALLWK, ETOTAL
*End Step
** ----------------------------------------------------------------
** 
** STEP: step_scan_02
** 
*Step, name=step_scan_02, nlgeom=YES, inc=999999
*Coupled Temperature-displacement, creep=none, deltmx=400.
0.001, 0.2, 2e-30, 0.01
** 
** LOADS
** 
** Name: load_body_hflux_02   Type: Body heat flux
*Dflux
inst_plate.set_body_heat_22, BF, 8e+10
** 
** OUTPUT REQUESTS
** 
*Restart, write, frequency=0
** 
** FIELD OUTPUT: F-Output-1
** 
*Output, field
*Node Output
NT, RF, U
*Element Output, directions=YES
HFL, PEEQ, S
** 
** HISTORY OUTPUT: H-Output-1
** 
*Output, history
*Energy Output
ALLAE, ALLIE, ALLKE, ALLPD, ALLSD, ALLSE, ALLWK, ETOTAL
*End Step
** ----------------------------------------------------------------
** 
** STEP: step_cool_02
** 
*Step, name=step_cool_02, nlgeom=YES, inc=999999
*Coupled Temperature-displacement, creep=none, deltmx=400.
0.01, 3.4, 3.4e-30, 0.2
** 
** LOADS
** 
** Name: load_body_hflux_02   Type: Body heat flux
*Dflux, op=NEW
** 
** OUTPUT REQUESTS
** 
*Restart, write, frequency=0
** 
** FIELD OUTPUT: F-Output-1
** 
*Output, field
*Node Output
NT, RF, U
*Element Output, directions=YES
HFL, PEEQ, S
** 
** HISTORY OUTPUT: H-Output-1
** 
*Output, history
*Energy Output
ALLAE, ALLIE, ALLKE, ALLPD, ALLSD, ALLSE, ALLWK, ETOTAL
*End Step
** ----------------------------------------------------------------
** 
** STEP: step_scan_03
** 
*Step, name=step_scan_03, nlgeom=YES, inc=999999
*Coupled Temperature-displacement, creep=none, deltmx=400.
0.001, 0.2, 2e-30, 0.01
** 
** LOADS
** 
** Name: load_body_hflux_03   Type: Body heat flux
*Dflux
inst_plate.set_body_heat_09, BF, 8e+10
** 
** OUTPUT REQUESTS
** 
*Restart, write, frequency=0
** 
** FIELD OUTPUT: F-Output-1
** 
*Output, field
*Node Output
NT, RF, U
*Element Output, directions=YES
HFL, PEEQ, S
** 
** HISTORY OUTPUT: H-Output-1
** 
*Output, history
*Energy Output
ALLAE, ALLIE, ALLKE, ALLPD, ALLSD, ALLSE, ALLWK, ETOTAL
*End Step
** ----------------------------------------------------------------
** 
** STEP: step_cool_03
** 
*Step, name=step_cool_03, nlgeom=YES, inc=999999
*Coupled Temperature-displacement, creep=none, deltmx=400.
0.01, 3.4, 3.4e-30, 0.2
** 
** LOADS
** 
** Name: load_body_hflux_03   Type: Body heat flux
*Dflux, op=NEW
** 
** OUTPUT REQUESTS
** 
*Restart, write, frequency=0
** 
** FIELD OUTPUT: F-Output-1
** 
*Output, field
*Node Output
NT, RF, U
*Element Output, directions=YES
HFL, PEEQ, S
** 
** HISTORY OUTPUT: H-Output-1
** 
*Output, history
*Energy Output
ALLAE, ALLIE, ALLKE, ALLPD, ALLSD, ALLSE, ALLWK, ETOTAL
*End Step
** ----------------------------------------------------------------
** 
** STEP: step_scan_04
** 
*Step, name=step_scan_04, nlgeom=YES, inc=999999
*Coupled Temperature-displacement, creep=none, deltmx=400.
0.001, 0.2, 2e-30, 0.01
** 
** LOADS
** 
** Name: load_body_hflux_04   Type: Body heat flux
*Dflux
inst_plate.set_body_heat_20, BF, 8e+10
** 
** OUTPUT REQUESTS
** 
*Restart, write, frequency=0
** 
** FIELD OUTPUT: F-Output-1
** 
*Output, field
*Node Output
NT, RF, U
*Element Output, directions=YES
HFL, PEEQ, S
** 
** HISTORY OUTPUT: H-Output-1
** 
*Output, history
*Energy Output
ALLAE, ALLIE, ALLKE, ALLPD, ALLSD, ALLSE, ALLWK, ETOTAL
*End Step
** ----------------------------------------------------------------
** 
** STEP: step_cool_04
** 
*Step, name=step_cool_04, nlgeom=YES, inc=999999
*Coupled Temperature-displacement, creep=none, deltmx=400.
0.01, 3.4, 3.4e-30, 0.2
** 
** LOADS
** 
** Name: load_body_hflux_04   Type: Body heat flux
*Dflux, op=NEW
** 
** OUTPUT REQUESTS
** 
*Restart, write, frequency=0
** 
** FIELD OUTPUT: F-Output-1
** 
*Output, field
*Node Output
NT, RF, U
*Element Output, directions=YES
HFL, PEEQ, S
** 
** HISTORY OUTPUT: H-Output-1
** 
*Output, history
*Energy Output
ALLAE, ALLIE, ALLKE, ALLPD, ALLSD, ALLSE, ALLWK, ETOTAL
*End Step
** ----------------------------------------------------------------
** 
** STEP: step_scan_05
** 
*Step, name=step_scan_05, nlgeom=YES, inc=999999
*Coupled Temperature-displacement, creep=none, deltmx=400.
0.001, 0.2, 2e-30, 0.01
** 
** LOADS
** 
** Name: load_body_hflux_05   Type: Body heat flux
*Dflux
inst_plate.set_body_heat_07, BF, 8e+10
** 
** OUTPUT REQUESTS
** 
*Restart, write, frequency=0
** 
** FIELD OUTPUT: F-Output-1
** 
*Output, field
*Node Output
NT, RF, U
*Element Output, directions=YES
HFL, PEEQ, S
** 
** HISTORY OUTPUT: H-Output-1
** 
*Output, history
*Energy Output
ALLAE, ALLIE, ALLKE, ALLPD, ALLSD, ALLSE, ALLWK, ETOTAL
*End Step
** ----------------------------------------------------------------
** 
** STEP: step_cool_05
** 
*Step, name=step_cool_05, nlgeom=YES, inc=999999
*Coupled Temperature-displacement, creep=none, deltmx=400.
0.01, 3.4, 3.4e-30, 0.2
** 
** LOADS
** 
** Name: load_body_hflux_05   Type: Body heat flux
*Dflux, op=NEW
** 
** OUTPUT REQUESTS
** 
*Restart, write, frequency=0
** 
** FIELD OUTPUT: F-Output-1
** 
*Output, field
*Node Output
NT, RF, U
*Element Output, directions=YES
HFL, PEEQ, S
** 
** HISTORY OUTPUT: H-Output-1
** 
*Output, history
*Energy Output
ALLAE, ALLIE, ALLKE, ALLPD, ALLSD, ALLSE, ALLWK, ETOTAL
*End Step
** ----------------------------------------------------------------
** 
** STEP: step_scan_06
** 
*Step, name=step_scan_06, nlgeom=YES, inc=999999
*Coupled Temperature-displacement, creep=none, deltmx=400.
0.001, 0.2, 2e-30, 0.01
** 
** LOADS
** 
** Name: load_body_hflux_06   Type: Body heat flux
*Dflux
inst_plate.set_body_heat_18, BF, 8e+10
** 
** OUTPUT REQUESTS
** 
*Restart, write, frequency=0
** 
** FIELD OUTPUT: F-Output-1
** 
*Output, field
*Node Output
NT, RF, U
*Element Output, directions=YES
HFL, PEEQ, S
** 
** HISTORY OUTPUT: H-Output-1
** 
*Output, history
*Energy Output
ALLAE, ALLIE, ALLKE, ALLPD, ALLSD, ALLSE, ALLWK, ETOTAL
*End Step
** ----------------------------------------------------------------
** 
** STEP: step_cool_06
** 
*Step, name=step_cool_06, nlgeom=YES, inc=999999
*Coupled Temperature-displacement, creep=none, deltmx=400.
0.01, 3.4, 3.4e-30, 0.2
** 
** LOADS
** 
** Name: load_body_hflux_06   Type: Body heat flux
*Dflux, op=NEW
** 
** OUTPUT REQUESTS
** 
*Restart, write, frequency=0
** 
** FIELD OUTPUT: F-Output-1
** 
*Output, field
*Node Output
NT, RF, U
*Element Output, directions=YES
HFL, PEEQ, S
** 
** HISTORY OUTPUT: H-Output-1
** 
*Output, history
*Energy Output
ALLAE, ALLIE, ALLKE, ALLPD, ALLSD, ALLSE, ALLWK, ETOTAL
*End Step
** ----------------------------------------------------------------
** 
** STEP: step_scan_07
** 
*Step, name=step_scan_07, nlgeom=YES, inc=999999
*Coupled Temperature-displacement, creep=none, deltmx=400.
0.001, 0.2, 2e-30, 0.01
** 
** LOADS
** 
** Name: load_body_hflux_07   Type: Body heat flux
*Dflux
inst_plate.set_body_heat_05, BF, 8e+10
** 
** OUTPUT REQUESTS
** 
*Restart, write, frequency=0
** 
** FIELD OUTPUT: F-Output-1
** 
*Output, field
*Node Output
NT, RF, U
*Element Output, directions=YES
HFL, PEEQ, S
** 
** HISTORY OUTPUT: H-Output-1
** 
*Output, history
*Energy Output
ALLAE, ALLIE, ALLKE, ALLPD, ALLSD, ALLSE, ALLWK, ETOTAL
*End Step
** ----------------------------------------------------------------
** 
** STEP: step_cool_07
** 
*Step, name=step_cool_07, nlgeom=YES, inc=999999
*Coupled Temperature-displacement, creep=none, deltmx=400.
0.01, 3.4, 3.4e-30, 0.2
** 
** LOADS
** 
** Name: load_body_hflux_07   Type: Body heat flux
*Dflux, op=NEW
** 
** OUTPUT REQUESTS
** 
*Restart, write, frequency=0
** 
** FIELD OUTPUT: F-Output-1
** 
*Output, field
*Node Output
NT, RF, U
*Element Output, directions=YES
HFL, PEEQ, S
** 
** HISTORY OUTPUT: H-Output-1
** 
*Output, history
*Energy Output
ALLAE, ALLIE, ALLKE, ALLPD, ALLSD, ALLSE, ALLWK, ETOTAL
*End Step
** ----------------------------------------------------------------
** 
** STEP: step_scan_08
** 
*Step, name=step_scan_08, nlgeom=YES, inc=999999
*Coupled Temperature-displacement, creep=none, deltmx=400.
0.001, 0.2, 2e-30, 0.01
** 
** LOADS
** 
** Name: load_body_hflux_08   Type: Body heat flux
*Dflux
inst_plate.set_body_heat_16, BF, 8e+10
** 
** OUTPUT REQUESTS
** 
*Restart, write, frequency=0
** 
** FIELD OUTPUT: F-Output-1
** 
*Output, field
*Node Output
NT, RF, U
*Element Output, directions=YES
HFL, PEEQ, S
** 
** HISTORY OUTPUT: H-Output-1
** 
*Output, history
*Energy Output
ALLAE, ALLIE, ALLKE, ALLPD, ALLSD, ALLSE, ALLWK, ETOTAL
*End Step
** ----------------------------------------------------------------
** 
** STEP: step_cool_08
** 
*Step, name=step_cool_08, nlgeom=YES, inc=999999
*Coupled Temperature-displacement, creep=none, deltmx=400.
0.01, 3.4, 3.4e-30, 0.2
** 
** LOADS
** 
** Name: load_body_hflux_08   Type: Body heat flux
*Dflux, op=NEW
** 
** OUTPUT REQUESTS
** 
*Restart, write, frequency=0
** 
** FIELD OUTPUT: F-Output-1
** 
*Output, field
*Node Output
NT, RF, U
*Element Output, directions=YES
HFL, PEEQ, S
** 
** HISTORY OUTPUT: H-Output-1
** 
*Output, history
*Energy Output
ALLAE, ALLIE, ALLKE, ALLPD, ALLSD, ALLSE, ALLWK, ETOTAL
*End Step
** ----------------------------------------------------------------
** 
** STEP: step_scan_09
** 
*Step, name=step_scan_09, nlgeom=YES, inc=999999
*Coupled Temperature-displacement, creep=none, deltmx=400.
0.001, 0.2, 2e-30, 0.01
** 
** LOADS
** 
** Name: load_body_hflux_09   Type: Body heat flux
*Dflux
inst_plate.set_body_heat_03, BF, 8e+10
** 
** OUTPUT REQUESTS
** 
*Restart, write, frequency=0
** 
** FIELD OUTPUT: F-Output-1
** 
*Output, field
*Node Output
NT, RF, U
*Element Output, directions=YES
HFL, PEEQ, S
** 
** HISTORY OUTPUT: H-Output-1
** 
*Output, history
*Energy Output
ALLAE, ALLIE, ALLKE, ALLPD, ALLSD, ALLSE, ALLWK, ETOTAL
*End Step
** ----------------------------------------------------------------
** 
** STEP: step_cool_09
** 
*Step, name=step_cool_09, nlgeom=YES, inc=999999
*Coupled Temperature-displacement, creep=none, deltmx=400.
0.01, 3.4, 3.4e-30, 0.2
** 
** LOADS
** 
** Name: load_body_hflux_09   Type: Body heat flux
*Dflux, op=NEW
** 
** OUTPUT REQUESTS
** 
*Restart, write, frequency=0
** 
** FIELD OUTPUT: F-Output-1
** 
*Output, field
*Node Output
NT, RF, U
*Element Output, directions=YES
HFL, PEEQ, S
** 
** HISTORY OUTPUT: H-Output-1
** 
*Output, history
*Energy Output
ALLAE, ALLIE, ALLKE, ALLPD, ALLSD, ALLSE, ALLWK, ETOTAL
*End Step
** ----------------------------------------------------------------
** 
** STEP: step_scan_10
** 
*Step, name=step_scan_10, nlgeom=YES, inc=999999
*Coupled Temperature-displacement, creep=none, deltmx=400.
0.001, 0.2, 2e-30, 0.01
** 
** LOADS
** 
** Name: load_body_hflux_10   Type: Body heat flux
*Dflux
inst_plate.set_body_heat_14, BF, 8e+10
** 
** OUTPUT REQUESTS
** 
*Restart, write, frequency=0
** 
** FIELD OUTPUT: F-Output-1
** 
*Output, field
*Node Output
NT, RF, U
*Element Output, directions=YES
HFL, PEEQ, S
** 
** HISTORY OUTPUT: H-Output-1
** 
*Output, history
*Energy Output
ALLAE, ALLIE, ALLKE, ALLPD, ALLSD, ALLSE, ALLWK, ETOTAL
*End Step
** ----------------------------------------------------------------
** 
** STEP: step_cool_10
** 
*Step, name=step_cool_10, nlgeom=YES, inc=999999
*Coupled Temperature-displacement, creep=none, deltmx=400.
0.01, 3.4, 3.4e-30, 0.2
** 
** LOADS
** 
** Name: load_body_hflux_10   Type: Body heat flux
*Dflux, op=NEW
** 
** OUTPUT REQUESTS
** 
*Restart, write, frequency=0
** 
** FIELD OUTPUT: F-Output-1
** 
*Output, field
*Node Output
NT, RF, U
*Element Output, directions=YES
HFL, PEEQ, S
** 
** HISTORY OUTPUT: H-Output-1
** 
*Output, history
*Energy Output
ALLAE, ALLIE, ALLKE, ALLPD, ALLSD, ALLSE, ALLWK, ETOTAL
*End Step
** ----------------------------------------------------------------
** 
** STEP: step_scan_11
** 
*Step, name=step_scan_11, nlgeom=YES, inc=999999
*Coupled Temperature-displacement, creep=none, deltmx=400.
0.001, 0.2, 2e-30, 0.01
** 
** LOADS
** 
** Name: load_body_hflux_11   Type: Body heat flux
*Dflux
inst_plate.set_body_heat_01, BF, 8e+10
** 
** OUTPUT REQUESTS
** 
*Restart, write, frequency=0
** 
** FIELD OUTPUT: F-Output-1
** 
*Output, field
*Node Output
NT, RF, U
*Element Output, directions=YES
HFL, PEEQ, S
** 
** HISTORY OUTPUT: H-Output-1
** 
*Output, history
*Energy Output
ALLAE, ALLIE, ALLKE, ALLPD, ALLSD, ALLSE, ALLWK, ETOTAL
*End Step
** ----------------------------------------------------------------
** 
** STEP: step_cool_11
** 
*Step, name=step_cool_11, nlgeom=YES, inc=999999
*Coupled Temperature-displacement, creep=none, deltmx=400.
0.01, 3.4, 3.4e-30, 0.2
** 
** LOADS
** 
** Name: load_body_hflux_11   Type: Body heat flux
*Dflux, op=NEW
** 
** OUTPUT REQUESTS
** 
*Restart, write, frequency=0
** 
** FIELD OUTPUT: F-Output-1
** 
*Output, field
*Node Output
NT, RF, U
*Element Output, directions=YES
HFL, PEEQ, S
** 
** HISTORY OUTPUT: H-Output-1
** 
*Output, history
*Energy Output
ALLAE, ALLIE, ALLKE, ALLPD, ALLSD, ALLSE, ALLWK, ETOTAL
*End Step
** ----------------------------------------------------------------
** 
** STEP: step_scan_12
** 
*Step, name=step_scan_12, nlgeom=YES, inc=999999
*Coupled Temperature-displacement, creep=none, deltmx=400.
0.001, 0.2, 2e-30, 0.01
** 
** LOADS
** 
** Name: load_body_hflux_12   Type: Body heat flux
*Dflux
inst_plate.set_body_heat_12, BF, 8e+10
** 
** OUTPUT REQUESTS
** 
*Restart, write, frequency=0
** 
** FIELD OUTPUT: F-Output-1
** 
*Output, field
*Node Output
NT, RF, U
*Element Output, directions=YES
HFL, PEEQ, S
** 
** HISTORY OUTPUT: H-Output-1
** 
*Output, history
*Energy Output
ALLAE, ALLIE, ALLKE, ALLPD, ALLSD, ALLSE, ALLWK, ETOTAL
*End Step
** ----------------------------------------------------------------
** 
** STEP: step_cool_12
** 
*Step, name=step_cool_12, nlgeom=YES, inc=999999
*Coupled Temperature-displacement, creep=none, deltmx=400.
0.01, 3.4, 3.4e-30, 0.2
** 
** LOADS
** 
** Name: load_body_hflux_12   Type: Body heat flux
*Dflux, op=NEW
** 
** OUTPUT REQUESTS
** 
*Restart, write, frequency=0
** 
** FIELD OUTPUT: F-Output-1
** 
*Output, field
*Node Output
NT, RF, U
*Element Output, directions=YES
HFL, PEEQ, S
** 
** HISTORY OUTPUT: H-Output-1
** 
*Output, history
*Energy Output
ALLAE, ALLIE, ALLKE, ALLPD, ALLSD, ALLSE, ALLWK, ETOTAL
*End Step
** ----------------------------------------------------------------
** 
** STEP: step_scan_13
** 
*Step, name=step_scan_13, nlgeom=YES, inc=999999
*Coupled Temperature-displacement, creep=none, deltmx=400.
0.001, 0.2, 2e-30, 0.01
** 
** LOADS
** 
** Name: load_body_hflux_13   Type: Body heat flux
*Dflux
inst_plate.set_body_heat_23, BF, 8e+10
** 
** OUTPUT REQUESTS
** 
*Restart, write, frequency=0
** 
** FIELD OUTPUT: F-Output-1
** 
*Output, field
*Node Output
NT, RF, U
*Element Output, directions=YES
HFL, PEEQ, S
** 
** HISTORY OUTPUT: H-Output-1
** 
*Output, history
*Energy Output
ALLAE, ALLIE, ALLKE, ALLPD, ALLSD, ALLSE, ALLWK, ETOTAL
*End Step
** ----------------------------------------------------------------
** 
** STEP: step_cool_13
** 
*Step, name=step_cool_13, nlgeom=YES, inc=999999
*Coupled Temperature-displacement, creep=none, deltmx=400.
0.01, 3.4, 3.4e-30, 0.2
** 
** LOADS
** 
** Name: load_body_hflux_13   Type: Body heat flux
*Dflux, op=NEW
** 
** OUTPUT REQUESTS
** 
*Restart, write, frequency=0
** 
** FIELD OUTPUT: F-Output-1
** 
*Output, field
*Node Output
NT, RF, U
*Element Output, directions=YES
HFL, PEEQ, S
** 
** HISTORY OUTPUT: H-Output-1
** 
*Output, history
*Energy Output
ALLAE, ALLIE, ALLKE, ALLPD, ALLSD, ALLSE, ALLWK, ETOTAL
*End Step
** ----------------------------------------------------------------
** 
** STEP: step_scan_14
** 
*Step, name=step_scan_14, nlgeom=YES, inc=999999
*Coupled Temperature-displacement, creep=none, deltmx=400.
0.001, 0.2, 2e-30, 0.01
** 
** LOADS
** 
** Name: load_body_hflux_14   Type: Body heat flux
*Dflux
inst_plate.set_body_heat_10, BF, 8e+10
** 
** OUTPUT REQUESTS
** 
*Restart, write, frequency=0
** 
** FIELD OUTPUT: F-Output-1
** 
*Output, field
*Node Output
NT, RF, U
*Element Output, directions=YES
HFL, PEEQ, S
** 
** HISTORY OUTPUT: H-Output-1
** 
*Output, history
*Energy Output
ALLAE, ALLIE, ALLKE, ALLPD, ALLSD, ALLSE, ALLWK, ETOTAL
*End Step
** ----------------------------------------------------------------
** 
** STEP: step_cool_14
** 
*Step, name=step_cool_14, nlgeom=YES, inc=999999
*Coupled Temperature-displacement, creep=none, deltmx=400.
0.01, 3.4, 3.4e-30, 0.2
** 
** LOADS
** 
** Name: load_body_hflux_14   Type: Body heat flux
*Dflux, op=NEW
** 
** OUTPUT REQUESTS
** 
*Restart, write, frequency=0
** 
** FIELD OUTPUT: F-Output-1
** 
*Output, field
*Node Output
NT, RF, U
*Element Output, directions=YES
HFL, PEEQ, S
** 
** HISTORY OUTPUT: H-Output-1
** 
*Output, history
*Energy Output
ALLAE, ALLIE, ALLKE, ALLPD, ALLSD, ALLSE, ALLWK, ETOTAL
*End Step
** ----------------------------------------------------------------
** 
** STEP: step_scan_15
** 
*Step, name=step_scan_15, nlgeom=YES, inc=999999
*Coupled Temperature-displacement, creep=none, deltmx=400.
0.001, 0.2, 2e-30, 0.01
** 
** LOADS
** 
** Name: load_body_hflux_15   Type: Body heat flux
*Dflux
inst_plate.set_body_heat_21, BF, 8e+10
** 
** OUTPUT REQUESTS
** 
*Restart, write, frequency=0
** 
** FIELD OUTPUT: F-Output-1
** 
*Output, field
*Node Output
NT, RF, U
*Element Output, directions=YES
HFL, PEEQ, S
** 
** HISTORY OUTPUT: H-Output-1
** 
*Output, history
*Energy Output
ALLAE, ALLIE, ALLKE, ALLPD, ALLSD, ALLSE, ALLWK, ETOTAL
*End Step
** ----------------------------------------------------------------
** 
** STEP: step_cool_15
** 
*Step, name=step_cool_15, nlgeom=YES, inc=999999
*Coupled Temperature-displacement, creep=none, deltmx=400.
0.01, 3.4, 3.4e-30, 0.2
** 
** LOADS
** 
** Name: load_body_hflux_15   Type: Body heat flux
*Dflux, op=NEW
** 
** OUTPUT REQUESTS
** 
*Restart, write, frequency=0
** 
** FIELD OUTPUT: F-Output-1
** 
*Output, field
*Node Output
NT, RF, U
*Element Output, directions=YES
HFL, PEEQ, S
** 
** HISTORY OUTPUT: H-Output-1
** 
*Output, history
*Energy Output
ALLAE, ALLIE, ALLKE, ALLPD, ALLSD, ALLSE, ALLWK, ETOTAL
*End Step
** ----------------------------------------------------------------
** 
** STEP: step_scan_16
** 
*Step, name=step_scan_16, nlgeom=YES, inc=999999
*Coupled Temperature-displacement, creep=none, deltmx=400.
0.001, 0.2, 2e-30, 0.01
** 
** LOADS
** 
** Name: load_body_hflux_16   Type: Body heat flux
*Dflux
inst_plate.set_body_heat_08, BF, 8e+10
** 
** OUTPUT REQUESTS
** 
*Restart, write, frequency=0
** 
** FIELD OUTPUT: F-Output-1
** 
*Output, field
*Node Output
NT, RF, U
*Element Output, directions=YES
HFL, PEEQ, S
** 
** HISTORY OUTPUT: H-Output-1
** 
*Output, history
*Energy Output
ALLAE, ALLIE, ALLKE, ALLPD, ALLSD, ALLSE, ALLWK, ETOTAL
*End Step
** ----------------------------------------------------------------
** 
** STEP: step_cool_16
** 
*Step, name=step_cool_16, nlgeom=YES, inc=999999
*Coupled Temperature-displacement, creep=none, deltmx=400.
0.01, 3.4, 3.4e-30, 0.2
** 
** LOADS
** 
** Name: load_body_hflux_16   Type: Body heat flux
*Dflux, op=NEW
** 
** OUTPUT REQUESTS
** 
*Restart, write, frequency=0
** 
** FIELD OUTPUT: F-Output-1
** 
*Output, field
*Node Output
NT, RF, U
*Element Output, directions=YES
HFL, PEEQ, S
** 
** HISTORY OUTPUT: H-Output-1
** 
*Output, history
*Energy Output
ALLAE, ALLIE, ALLKE, ALLPD, ALLSD, ALLSE, ALLWK, ETOTAL
*End Step
** ----------------------------------------------------------------
** 
** STEP: step_scan_17
** 
*Step, name=step_scan_17, nlgeom=YES, inc=999999
*Coupled Temperature-displacement, creep=none, deltmx=400.
0.001, 0.2, 2e-30, 0.01
** 
** LOADS
** 
** Name: load_body_hflux_17   Type: Body heat flux
*Dflux
inst_plate.set_body_heat_19, BF, 8e+10
** 
** OUTPUT REQUESTS
** 
*Restart, write, frequency=0
** 
** FIELD OUTPUT: F-Output-1
** 
*Output, field
*Node Output
NT, RF, U
*Element Output, directions=YES
HFL, PEEQ, S
** 
** HISTORY OUTPUT: H-Output-1
** 
*Output, history
*Energy Output
ALLAE, ALLIE, ALLKE, ALLPD, ALLSD, ALLSE, ALLWK, ETOTAL
*End Step
** ----------------------------------------------------------------
** 
** STEP: step_cool_17
** 
*Step, name=step_cool_17, nlgeom=YES, inc=999999
*Coupled Temperature-displacement, creep=none, deltmx=400.
0.01, 3.4, 3.4e-30, 0.2
** 
** LOADS
** 
** Name: load_body_hflux_17   Type: Body heat flux
*Dflux, op=NEW
** 
** OUTPUT REQUESTS
** 
*Restart, write, frequency=0
** 
** FIELD OUTPUT: F-Output-1
** 
*Output, field
*Node Output
NT, RF, U
*Element Output, directions=YES
HFL, PEEQ, S
** 
** HISTORY OUTPUT: H-Output-1
** 
*Output, history
*Energy Output
ALLAE, ALLIE, ALLKE, ALLPD, ALLSD, ALLSE, ALLWK, ETOTAL
*End Step
** ----------------------------------------------------------------
** 
** STEP: step_scan_18
** 
*Step, name=step_scan_18, nlgeom=YES, inc=999999
*Coupled Temperature-displacement, creep=none, deltmx=400.
0.001, 0.2, 2e-30, 0.01
** 
** LOADS
** 
** Name: load_body_hflux_18   Type: Body heat flux
*Dflux
inst_plate.set_body_heat_06, BF, 8e+10
** 
** OUTPUT REQUESTS
** 
*Restart, write, frequency=0
** 
** FIELD OUTPUT: F-Output-1
** 
*Output, field
*Node Output
NT, RF, U
*Element Output, directions=YES
HFL, PEEQ, S
** 
** HISTORY OUTPUT: H-Output-1
** 
*Output, history
*Energy Output
ALLAE, ALLIE, ALLKE, ALLPD, ALLSD, ALLSE, ALLWK, ETOTAL
*End Step
** ----------------------------------------------------------------
** 
** STEP: step_cool_18
** 
*Step, name=step_cool_18, nlgeom=YES, inc=999999
*Coupled Temperature-displacement, creep=none, deltmx=400.
0.01, 3.4, 3.4e-30, 0.2
** 
** LOADS
** 
** Name: load_body_hflux_18   Type: Body heat flux
*Dflux, op=NEW
** 
** OUTPUT REQUESTS
** 
*Restart, write, frequency=0
** 
** FIELD OUTPUT: F-Output-1
** 
*Output, field
*Node Output
NT, RF, U
*Element Output, directions=YES
HFL, PEEQ, S
** 
** HISTORY OUTPUT: H-Output-1
** 
*Output, history
*Energy Output
ALLAE, ALLIE, ALLKE, ALLPD, ALLSD, ALLSE, ALLWK, ETOTAL
*End Step
** ----------------------------------------------------------------
** 
** STEP: step_scan_19
** 
*Step, name=step_scan_19, nlgeom=YES, inc=999999
*Coupled Temperature-displacement, creep=none, deltmx=400.
0.001, 0.2, 2e-30, 0.01
** 
** LOADS
** 
** Name: load_body_hflux_19   Type: Body heat flux
*Dflux
inst_plate.set_body_heat_17, BF, 8e+10
** 
** OUTPUT REQUESTS
** 
*Restart, write, frequency=0
** 
** FIELD OUTPUT: F-Output-1
** 
*Output, field
*Node Output
NT, RF, U
*Element Output, directions=YES
HFL, PEEQ, S
** 
** HISTORY OUTPUT: H-Output-1
** 
*Output, history
*Energy Output
ALLAE, ALLIE, ALLKE, ALLPD, ALLSD, ALLSE, ALLWK, ETOTAL
*End Step
** ----------------------------------------------------------------
** 
** STEP: step_cool_19
** 
*Step, name=step_cool_19, nlgeom=YES, inc=999999
*Coupled Temperature-displacement, creep=none, deltmx=400.
0.01, 3.4, 3.4e-30, 0.2
** 
** LOADS
** 
** Name: load_body_hflux_19   Type: Body heat flux
*Dflux, op=NEW
** 
** OUTPUT REQUESTS
** 
*Restart, write, frequency=0
** 
** FIELD OUTPUT: F-Output-1
** 
*Output, field
*Node Output
NT, RF, U
*Element Output, directions=YES
HFL, PEEQ, S
** 
** HISTORY OUTPUT: H-Output-1
** 
*Output, history
*Energy Output
ALLAE, ALLIE, ALLKE, ALLPD, ALLSD, ALLSE, ALLWK, ETOTAL
*End Step
** ----------------------------------------------------------------
** 
** STEP: step_scan_20
** 
*Step, name=step_scan_20, nlgeom=YES, inc=999999
*Coupled Temperature-displacement, creep=none, deltmx=400.
0.001, 0.2, 2e-30, 0.01
** 
** LOADS
** 
** Name: load_body_hflux_20   Type: Body heat flux
*Dflux
inst_plate.set_body_heat_04, BF, 8e+10
** 
** OUTPUT REQUESTS
** 
*Restart, write, frequency=0
** 
** FIELD OUTPUT: F-Output-1
** 
*Output, field
*Node Output
NT, RF, U
*Element Output, directions=YES
HFL, PEEQ, S
** 
** HISTORY OUTPUT: H-Output-1
** 
*Output, history
*Energy Output
ALLAE, ALLIE, ALLKE, ALLPD, ALLSD, ALLSE, ALLWK, ETOTAL
*End Step
** ----------------------------------------------------------------
** 
** STEP: step_cool_20
** 
*Step, name=step_cool_20, nlgeom=YES, inc=999999
*Coupled Temperature-displacement, creep=none, deltmx=400.
0.01, 3.4, 3.4e-30, 0.2
** 
** LOADS
** 
** Name: load_body_hflux_20   Type: Body heat flux
*Dflux, op=NEW
** 
** OUTPUT REQUESTS
** 
*Restart, write, frequency=0
** 
** FIELD OUTPUT: F-Output-1
** 
*Output, field
*Node Output
NT, RF, U
*Element Output, directions=YES
HFL, PEEQ, S
** 
** HISTORY OUTPUT: H-Output-1
** 
*Output, history
*Energy Output
ALLAE, ALLIE, ALLKE, ALLPD, ALLSD, ALLSE, ALLWK, ETOTAL
*End Step
** ----------------------------------------------------------------
** 
** STEP: step_scan_21
** 
*Step, name=step_scan_21, nlgeom=YES, inc=999999
*Coupled Temperature-displacement, creep=none, deltmx=400.
0.001, 0.2, 2e-30, 0.01
** 
** LOADS
** 
** Name: load_body_hflux_21   Type: Body heat flux
*Dflux
inst_plate.set_body_heat_15, BF, 8e+10
** 
** OUTPUT REQUESTS
** 
*Restart, write, frequency=0
** 
** FIELD OUTPUT: F-Output-1
** 
*Output, field
*Node Output
NT, RF, U
*Element Output, directions=YES
HFL, PEEQ, S
** 
** HISTORY OUTPUT: H-Output-1
** 
*Output, history
*Energy Output
ALLAE, ALLIE, ALLKE, ALLPD, ALLSD, ALLSE, ALLWK, ETOTAL
*End Step
** ----------------------------------------------------------------
** 
** STEP: step_cool_21
** 
*Step, name=step_cool_21, nlgeom=YES, inc=999999
*Coupled Temperature-displacement, creep=none, deltmx=400.
0.01, 3.4, 3.4e-30, 0.2
** 
** LOADS
** 
** Name: load_body_hflux_21   Type: Body heat flux
*Dflux, op=NEW
** 
** OUTPUT REQUESTS
** 
*Restart, write, frequency=0
** 
** FIELD OUTPUT: F-Output-1
** 
*Output, field
*Node Output
NT, RF, U
*Element Output, directions=YES
HFL, PEEQ, S
** 
** HISTORY OUTPUT: H-Output-1
** 
*Output, history
*Energy Output
ALLAE, ALLIE, ALLKE, ALLPD, ALLSD, ALLSE, ALLWK, ETOTAL
*End Step
** ----------------------------------------------------------------
** 
** STEP: step_scan_22
** 
*Step, name=step_scan_22, nlgeom=YES, inc=999999
*Coupled Temperature-displacement, creep=none, deltmx=400.
0.001, 0.2, 2e-30, 0.01
** 
** LOADS
** 
** Name: load_body_hflux_22   Type: Body heat flux
*Dflux
inst_plate.set_body_heat_02, BF, 8e+10
** 
** OUTPUT REQUESTS
** 
*Restart, write, frequency=0
** 
** FIELD OUTPUT: F-Output-1
** 
*Output, field
*Node Output
NT, RF, U
*Element Output, directions=YES
HFL, PEEQ, S
** 
** HISTORY OUTPUT: H-Output-1
** 
*Output, history
*Energy Output
ALLAE, ALLIE, ALLKE, ALLPD, ALLSD, ALLSE, ALLWK, ETOTAL
*End Step
** ----------------------------------------------------------------
** 
** STEP: step_cool_22
** 
*Step, name=step_cool_22, nlgeom=YES, inc=999999
*Coupled Temperature-displacement, creep=none, deltmx=400.
0.01, 3.4, 3.4e-30, 0.2
** 
** LOADS
** 
** Name: load_body_hflux_22   Type: Body heat flux
*Dflux, op=NEW
** 
** OUTPUT REQUESTS
** 
*Restart, write, frequency=0
** 
** FIELD OUTPUT: F-Output-1
** 
*Output, field
*Node Output
NT, RF, U
*Element Output, directions=YES
HFL, PEEQ, S
** 
** HISTORY OUTPUT: H-Output-1
** 
*Output, history
*Energy Output
ALLAE, ALLIE, ALLKE, ALLPD, ALLSD, ALLSE, ALLWK, ETOTAL
*End Step
** ----------------------------------------------------------------
** 
** STEP: step_scan_23
** 
*Step, name=step_scan_23, nlgeom=YES, inc=999999
*Coupled Temperature-displacement, creep=none, deltmx=400.
0.001, 0.2, 2e-30, 0.01
** 
** LOADS
** 
** Name: load_body_hflux_23   Type: Body heat flux
*Dflux
inst_plate.set_body_heat_13, BF, 8e+10
** 
** OUTPUT REQUESTS
** 
*Restart, write, frequency=0
** 
** FIELD OUTPUT: F-Output-1
** 
*Output, field
*Node Output
NT, RF, U
*Element Output, directions=YES
HFL, PEEQ, S
** 
** HISTORY OUTPUT: H-Output-1
** 
*Output, history
*Energy Output
ALLAE, ALLIE, ALLKE, ALLPD, ALLSD, ALLSE, ALLWK, ETOTAL
*End Step
** ----------------------------------------------------------------
** 
** STEP: step_cool_23
** 
*Step, name=step_cool_23, nlgeom=YES, inc=999999
*Coupled Temperature-displacement, creep=none, deltmx=400.
0.01, 3.4, 3.4e-30, 0.2
** 
** LOADS
** 
** Name: load_body_hflux_23   Type: Body heat flux
*Dflux, op=NEW
** 
** OUTPUT REQUESTS
** 
*Restart, write, frequency=0
** 
** FIELD OUTPUT: F-Output-1
** 
*Output, field
*Node Output
NT, RF, U
*Element Output, directions=YES
HFL, PEEQ, S
** 
** HISTORY OUTPUT: H-Output-1
** 
*Output, history
*Energy Output
ALLAE, ALLIE, ALLKE, ALLPD, ALLSD, ALLSE, ALLWK, ETOTAL
*End Step
** ----------------------------------------------------------------
** 
** STEP: step_final_cooling
** 
*Step, name=step_final_cooling, nlgeom=YES, inc=999999
*Coupled Temperature-displacement, creep=none, deltmx=400.
0.01, 1200., 3.4e-30, 60.
** 
** OUTPUT REQUESTS
** 
*Restart, write, frequency=0
** 
** FIELD OUTPUT: F-Output-1
** 
*Output, field
*Node Output
NT, RF, U
*Element Output, directions=YES
HFL, PEEQ, S
** 
** HISTORY OUTPUT: H-Output-1
** 
*Output, history
*Energy Output
ALLAE, ALLIE, ALLKE, ALLPD, ALLSD, ALLSE, ALLWK, ETOTAL
*End Step
