*Heading
** Job name: J2D_S3B20_N12_B02_diversity_top Model name: Model-1
** Generated by: Abaqus/CAE 2024
*Preprint, echo=NO, model=NO, history=NO, contact=NO
**
** PARTS
**
*Part, name=part_plate
*Node
      1, 0.0260000005, 0.00200000009
      2, 0.0260000005,           0.
      3, 0.0280000009,           0.
      4, 0.0280000009, 0.00200000009
      5, 0.0260000005, 0.00300000003
      6, 0.0280000009, 0.00300000003
      7, 0.0240000002, 0.00200000009
      8, 0.0240000002,           0.
      9, 0.0240000002, 0.00300000003
     10, 0.0219999999, 0.00200000009
     11, 0.0219999999,           0.
     12, 0.0219999999, 0.00300000003
     13, 0.0199999996, 0.00200000009
     14, 0.0199999996,           0.
     15, 0.0199999996, 0.00300000003
     16, 0.0179999992, 0.00200000009
     17, 0.0179999992,           0.
     18, 0.0179999992, 0.00300000003
     19, 0.0160000008, 0.00200000009
     20, 0.0160000008,           0.
** ... 379 like lines cut
*Element, type=CPE4T
 1,   1,  46, 232,  57
 2,  46,  47, 233, 232
 3,  47,  48, 234, 233
 4,  48,   2,  49, 234
 5,  57, 232, 235,  56
 6, 232, 233, 236, 235
 7, 233, 234, 237, 236
 8, 234,  49,  50, 237
 9,  56, 235, 238,  55
10, 235, 236, 239, 238
11, 236, 237, 240, 239
12, 237,  50,  51, 240
13,  55, 238,  54,   4
14, 238, 239,  53,  54
15, 239, 240,  52,  53
16, 240,  51,   3,  52
17,   5,  58, 241,  62
18,  58,   1,  57, 241
19,  62, 241, 242,  61
20, 241,  57,  56, 242
** ... 316 like lines cut
*Nset, nset=section_all, generate
   1,  399,    1
*Elset, elset=section_all, generate
   1,  336,    1
*Nset, nset=set_body_heat_00
  37,  39,  40,  44, 202, 212, 213, 214, 224, 225, 226, 227, 394, 395, 396
*Elset, elset=set_body_heat_00, generate
 321,  328,    1
*Nset, nset=set_body_heat_01
  34,  36,  37,  39, 189, 199, 200, 201, 202, 203, 204, 205, 373, 374, 375
*Elset, elset=set_body_heat_01, generate
 281,  288,    1
*Nset, nset=set_body_heat_02
  31,  33,  34,  36, 176, 186, 187, 188, 189, 190, 191, 192, 361, 362, 363
*Elset, elset=set_body_heat_02, generate
 257,  264,    1
*Nset, nset=set_body_heat_03
  28,  30,  31,  33, 163, 173, 174, 175, 176, 177, 178, 179, 349, 350, 351
*Elset, elset=set_body_heat_03, generate
 233,  240,    1
*Nset, nset=set_body_heat_04
  25,  27,  28,  30, 150, 160, 161, 162, 163, 164, 165, 166, 337, 338, 339
*Elset, elset=set_body_heat_04, generate
 209,  216,    1
*Nset, nset=set_body_heat_05
  22,  24,  25,  27, 137, 147, 148, 149, 150, 151, 152, 153, 325, 326, 327
*Elset, elset=set_body_heat_05, generate
 185,  192,    1
*Nset, nset=set_body_heat_06
  19,  21,  22,  24, 124, 134, 135, 136, 137, 138, 139, 140, 313, 314, 315
*Elset, elset=set_body_heat_06, generate
 161,  168,    1
*Nset, nset=set_body_heat_07
  16,  18,  19,  21, 111, 121, 122, 123, 124, 125, 126, 127, 301, 302, 303
*Elset, elset=set_body_heat_07, generate
 137,  144,    1
*Nset, nset=set_body_heat_08
  13,  15,  16,  18,  98, 108, 109, 110, 111, 112, 113, 114, 289, 290, 291
*Elset, elset=set_body_heat_08, generate
 113,  120,    1
*Nset, nset=set_body_heat_09
  10,  12,  13,  15,  85,  95,  96,  97,  98,  99, 100, 101, 277, 278, 279
*Elset, elset=set_body_heat_09, generate
 89,  96,   1
*Nset, nset=set_body_heat_10
   7,   9,  10,  12,  72,  76,  77,  78,  85,  86,  87,  88, 265, 266, 267
*Elset, elset=set_body_heat_10, generate
 65,  72,   1
*Nset, nset=set_body_heat_11
   1,   5,   7,   9,  58,  69,  70,  71,  72,  73,  74,  75, 253, 254, 255
*Elset, elset=set_body_heat_11, generate
 41,  48,   1
*Elset, elset=_surf_external_all_S2, internal
   4,   8,  12,  16,  28,  32,  36,  40,  76,  80,  84,  88, 100, 104, 108, 112
 124, 128, 132, 136, 148, 152, 156, 160, 172, 176, 180, 184, 196, 200, 204, 208
 220, 224, 228, 232, 244, 248, 252, 256, 268, 272, 276, 280, 292, 296, 300, 304
 308, 312, 316, 320, 330, 332, 334, 336
*Elset, elset=_surf_external_all_S3, internal
  13,  14,  15,  16,  23,  24, 317, 318, 319, 320, 335, 336
*Elset, elset=_surf_external_all_S4, internal
  17,  19,  21,  23,  41,  43,  45,  47,  49,  53,  57,  61,  65,  67,  69,  71
  89,  91,  93,  95, 113, 115, 117, 119, 137, 139, 141, 143, 161, 163, 165, 167
 185, 187, 189, 191, 209, 211, 213, 215, 233, 235, 237, 239, 257, 259, 261, 263
 281, 283, 285, 287, 321, 323, 325, 327
*Surface, type=ELEMENT, name=surf_external_all
_surf_external_all_S2, S2
_surf_external_all_S3, S3
_surf_external_all_S4, S4
** Section: property_section_all
*Solid Section, elset=section_all, material="SS316L For AM"
,
*End Part
**  
**
** ASSEMBLY
**
*Assembly, name=Assembly
**  
*Instance, name=inst_plate, part=part_plate
*End Instance
**  
*Nset, nset=_PickedSet4, internal, instance=inst_plate
 43,
*Nset, nset=_PickedSet5, internal, instance=inst_plate
 3,
*End Assembly
** 
** MATERIALS
** 
** Material property of AISI Type 316L Steel in Additive Manufacturing
** 
*Material, name="SS316L For AM"
*Conductivity
  14.,  20.
  16., 100.
  17., 200.
  19., 400.
 21.5, 600.
  24., 800.
 26.5,1000.
  29.,1200.
  31.,1375.
  29.,1400.
  29.,1723.
  29.,3000.
*Density
7980.,  20.
7950., 100.
7920., 200.
7860., 400.
7800., 600.
7740., 800.
7680.,1000.
7620.,1200.
7580.,1375.
7450.,1400.
7300.,1723.
7200.,3000.
*Elastic
 2.08e+11,  0.3,  20.
 2.02e+11,  0.3, 100.
 1.94e+11,  0.3, 200.
 1.78e+11,  0.3, 400.
 1.62e+11,  0.3, 600.
 1.42e+11,  0.3, 800.
 1.12e+11,  0.3,1000.
  7.5e+10,  0.3,1200.
  1.5e+10,  0.3,1375.
    1e+08,  0.3,1400.
    1e+07,  0.3,1723.
    1e+06,  0.3,3000.
*Expansion
 1.48e-05,  20.
  1.6e-05, 100.
 1.68e-05, 200.
 1.78e-05, 400.
 1.87e-05, 600.
 1.96e-05, 800.
 2.02e-05,1000.
 2.08e-05,1200.
 2.15e-05,1375.
  2.2e-05,1400.
  2.2e-05,1723.
  2.2e-05,3000.
*Latent Heat
256000.,1375.,1400.
*Plastic
 5.8e+08,   0.,  20.
 5.3e+08,   0., 100.
 4.8e+08,   0., 200.
 4.1e+08,   0., 400.
 3.5e+08,   0., 600.
 2.1e+08,   0., 800.
   9e+07,   0.,1000.
   3e+07,   0.,1200.
   2e+06,   0.,1375.
  10000.,   0.,1400.
   5000.,   0.,1723.
   1000.,   0.,3000.
*Specific Heat
450.,  20.
480., 100.
505., 200.
540., 400.
570., 600.
600., 800.
635.,1000.
670.,1200.
700.,1375.
750.,1400.
760.,1723.
800.,3000.
** 
** PHYSICAL CONSTANTS
** 
*Physical Constants, absolute zero=-173., stefan boltzmann=5.67e-08
** 
** BOUNDARY CONDITIONS
** 
** Name: bc_point_xy Type: Displacement/Rotation
*Boundary
_PickedSet4, 1, 1
_PickedSet4, 2, 2
** Name: bc_point_y Type: Displacement/Rotation
*Boundary
_PickedSet5, 2, 2
** 
** PREDEFINED FIELDS
** 
** Name: predefined_temperature_all   Type: Temperature
*Initial Conditions, type=TEMPERATURE
inst_plate.section_all, 20.
** ----------------------------------------------------------------
** 
** STEP: step_scan_00
** 
*Step, name=step_scan_00, nlgeom=YES, inc=999999
*Coupled Temperature-displacement, creep=none, deltmx=400.
0.2, 0.2, 2e-06, 0.2
** 
** LOADS
** 
** Name: load_body_hflux_00   Type: Body heat flux
*Dflux
inst_plate.set_body_heat_01, BF, 8e+10
** 
** INTERACTIONS
** 
** Interaction: film_external_cooling
*Sfilm
inst_plate.surf_external_all, F, 20., 46.3
** Interaction: rad_external_ambient
*Sradiate
inst_plate.surf_external_all, R, 20., 0.285
** 
** OUTPUT REQUESTS
** 
*Restart, write, frequency=0
** 
** FIELD OUTPUT: F-Output-1
** 
*Output, field
*Node Output
NT, RF, U
*Element Output, directions=YES
HFL, PEEQ, S
** 
** HISTORY OUTPUT: H-Output-1
** 
*Output, history
*Energy Output
ALLAE, ALLIE, ALLKE, ALLPD, ALLSD, ALLSE, ALLWK, ETOTAL
*End Step
** ----------------------------------------------------------------
** 
** STEP: step_cool_00
** 
*Step, name=step_cool_00, nlgeom=YES, inc=999999
*Coupled Temperature-displacement, creep=none, deltmx=400.
0.01, 3.4, 3.4e-30, 0.2
** 
** LOADS
** 
** Name: load_body_hflux_00   Type: Body heat flux
*Dflux, op=NEW
** 
** OUTPUT REQUESTS
** 
*Restart, write, frequency=0
** 
** FIELD OUTPUT: F-Output-1
** 
*Output, field
*Node Output
NT, RF, U
*Element Output, directions=YES
HFL, PEEQ, S
** 
** HISTORY OUTPUT: H-Output-1
** 
*Output, history
*Energy Output
ALLAE, ALLIE, ALLKE, ALLPD, ALLSD, ALLSE, ALLWK, ETOTAL
*End Step
** ----------------------------------------------------------------
** 
** STEP: step_scan_01
** 
*Step, name=step_scan_01, nlgeom=YES, inc=999999
*Coupled Temperature-displacement, creep=none, deltmx=400.
0.2, 0.2, 2e-06, 0.2
** 
** LOADS
** 
** Name: load_body_hflux_01   Type: Body heat flux
*Dflux
inst_plate.set_body_heat_11, BF, 8e+10
** 
** OUTPUT REQUESTS
** 
*Restart, write, frequency=0
** 
** FIELD OUTPUT: F-Output-1
** 
*Output, field
*Node Output
NT, RF, U
*Element Output, directions=YES
HFL, PEEQ, S
** 
** HISTORY OUTPUT: H-Output-1
** 
*Output, history
*Energy Output
ALLAE, ALLIE, ALLKE, ALLPD, ALLSD, ALLSE, ALLWK, ETOTAL
*End Step
** ----------------------------------------------------------------
** 
** STEP: step_cool_01
** 
*Step, name=step_cool_01, nlgeom=YES, inc=999999
*Coupled Temperature-displacement, creep=none, deltmx=400.
0.01, 3.4, 3.4e-30, 0.2
** 
** LOADS
** 
** Name: load_body_hflux_01   Type: Body heat flux
*Dflux, op=NEW
** 
** OUTPUT REQUESTS
** 
*Restart, write, frequency=0
** 
** FIELD OUTPUT: F-Output-1
** 
*Output, field
*Node Output
NT, RF, U
*Element Output, directions=YES
HFL, PEEQ, S
** 
** HISTORY OUTPUT: H-Output-1
** 
*Output, history
*Energy Output
ALLAE, ALLIE, ALLKE, ALLPD, ALLSD, ALLSE, ALLWK, ETOTAL
*End Step
** ----------------------------------------------------------------
** 
** STEP: step_scan_02
** 
*Step, name=step_scan_02, nlgeom=YES, inc=999999
*Coupled Temperature-displacement, creep=none, deltmx=400.
0.2, 0.2, 2e-06, 0.2
** 
** LOADS
** 
** Name: load_body_hflux_02   Type: Body heat flux
*Dflux
inst_plate.set_body_heat_09, BF, 8e+10
** 
** OUTPUT REQUESTS
** 
*Restart, write, frequency=0
** 
** FIELD OUTPUT: F-Output-1
** 
*Output, field
*Node Output
NT, RF, U
*Element Output, directions=YES
HFL, PEEQ, S
** 
** HISTORY OUTPUT: H-Output-1
** 
*Output, history
*Energy Output
ALLAE, ALLIE, ALLKE, ALLPD, ALLSD, ALLSE, ALLWK, ETOTAL
*End Step
** ----------------------------------------------------------------
** 
** STEP: step_cool_02
** 
*Step, name=step_cool_02, nlgeom=YES, inc=999999
*Coupled Temperature-displacement, creep=none, deltmx=400.
0.01, 3.4, 3.4e-30, 0.2
** 
** LOADS
** 
** Name: load_body_hflux_02   Type: Body heat flux
*Dflux, op=NEW
** 
** OUTPUT REQUESTS
** 
*Restart, write, frequency=0
** 
** FIELD OUTPUT: F-Output-1
** 
*Output, field
*Node Output
NT, RF, U
*Element Output, directions=YES
HFL, PEEQ, S
** 
** HISTORY OUTPUT: H-Output-1
** 
*Output, history
*Energy Output
ALLAE, ALLIE, ALLKE, ALLPD, ALLSD, ALLSE, ALLWK, ETOTAL
*End Step
** ----------------------------------------------------------------
** 
** STEP: step_scan_03
** 
*Step, name=step_scan_03, nlgeom=YES, inc=999999
*Coupled Temperature-displacement, creep=none, deltmx=400.
0.2, 0.2, 2e-06, 0.2
** 
** LOADS
** 
** Name: load_body_hflux_03   Type: Body heat flux
*Dflux
inst_plate.set_body_heat_07, BF, 8e+10
** 
** OUTPUT REQUESTS
** 
*Restart, write, frequency=0
** 
** FIELD OUTPUT: F-Output-1
** 
*Output, field
*Node Output
NT, RF, U
*Element Output, directions=YES
HFL, PEEQ, S
** 
** HISTORY OUTPUT: H-Output-1
** 
*Output, history
*Energy Output
ALLAE, ALLIE, ALLKE, ALLPD, ALLSD, ALLSE, ALLWK, ETOTAL
*End Step
** ----------------------------------------------------------------
** 
** STEP: step_cool_03
** 
*Step, name=step_cool_03, nlgeom=YES, inc=999999
*Coupled Temperature-displacement, creep=none, deltmx=400.
0.01, 3.4, 3.4e-30, 0.2
** 
** LOADS
** 
** Name: load_body_hflux_03   Type: Body heat flux
*Dflux, op=NEW
** 
** OUTPUT REQUESTS
** 
*Restart, write, frequency=0
** 
** FIELD OUTPUT: F-Output-1
** 
*Output, field
*Node Output
NT, RF, U
*Element Output, directions=YES
HFL, PEEQ, S
** 
** HISTORY OUTPUT: H-Output-1
** 
*Output, history
*Energy Output
ALLAE, ALLIE, ALLKE, ALLPD, ALLSD, ALLSE, ALLWK, ETOTAL
*End Step
** ----------------------------------------------------------------
** 
** STEP: step_scan_04
** 
*Step, name=step_scan_04, nlgeom=YES, inc=999999
*Coupled Temperature-displacement, creep=none, deltmx=400.
0.2, 0.2, 2e-06, 0.2
** 
** LOADS
** 
** Name: load_body_hflux_04   Type: Body heat flux
*Dflux
inst_plate.set_body_heat_05, BF, 8e+10
** 
** OUTPUT REQUESTS
** 
*Restart, write, frequency=0
** 
** FIELD OUTPUT: F-Output-1
** 
*Output, field
*Node Output
NT, RF, U
*Element Output, directions=YES
HFL, PEEQ, S
** 
** HISTORY OUTPUT: H-Output-1
** 
*Output, history
*Energy Output
ALLAE, ALLIE, ALLKE, ALLPD, ALLSD, ALLSE, ALLWK, ETOTAL
*End Step
** ----------------------------------------------------------------
** 
** STEP: step_cool_04
** 
*Step, name=step_cool_04, nlgeom=YES, inc=999999
*Coupled Temperature-displacement, creep=none, deltmx=400.
0.01, 3.4, 3.4e-30, 0.2
** 
** LOADS
** 
** Name: load_body_hflux_04   Type: Body heat flux
*Dflux, op=NEW
** 
** OUTPUT REQUESTS
** 
*Restart, write, frequency=0
** 
** FIELD OUTPUT: F-Output-1
** 
*Output, field
*Node Output
NT, RF, U
*Element Output, directions=YES
HFL, PEEQ, S
** 
** HISTORY OUTPUT: H-Output-1
** 
*Output, history
*Energy Output
ALLAE, ALLIE, ALLKE, ALLPD, ALLSD, ALLSE, ALLWK, ETOTAL
*End Step
** ----------------------------------------------------------------
** 
** STEP: step_scan_05
** 
*Step, name=step_scan_05, nlgeom=YES, inc=999999
*Coupled Temperature-displacement, creep=none, deltmx=400.
0.2, 0.2, 2e-06, 0.2
** 
** LOADS
** 
** Name: load_body_hflux_05   Type: Body heat flux
*Dflux
inst_plate.set_body_heat_03, BF, 8e+10
** 
** OUTPUT REQUESTS
** 
*Restart, write, frequency=0
** 
** FIELD OUTPUT: F-Output-1
** 
*Output, field
*Node Output
NT, RF, U
*Element Output, directions=YES
HFL, PEEQ, S
** 
** HISTORY OUTPUT: H-Output-1
** 
*Output, history
*Energy Output
ALLAE, ALLIE, ALLKE, ALLPD, ALLSD, ALLSE, ALLWK, ETOTAL
*End Step
** ----------------------------------------------------------------
** 
** STEP: step_cool_05
** 
*Step, name=step_cool_05, nlgeom=YES, inc=999999
*Coupled Temperature-displacement, creep=none, deltmx=400.
0.01, 3.4, 3.4e-30, 0.2
** 
** LOADS
** 
** Name: load_body_hflux_05   Type: Body heat flux
*Dflux, op=NEW
** 
** OUTPUT REQUESTS
** 
*Restart, write, frequency=0
** 
** FIELD OUTPUT: F-Output-1
** 
*Output, field
*Node Output
NT, RF, U
*Element Output, directions=YES
HFL, PEEQ, S
** 
** HISTORY OUTPUT: H-Output-1
** 
*Output, history
*Energy Output
ALLAE, ALLIE, ALLKE, ALLPD, ALLSD, ALLSE, ALLWK, ETOTAL
*End Step
** ----------------------------------------------------------------
** 
** STEP: step_scan_06
** 
*Step, name=step_scan_06, nlgeom=YES, inc=999999
*Coupled Temperature-displacement, creep=none, deltmx=400.
0.2, 0.2, 2e-06, 0.2
** 
** LOADS
** 
** Name: load_body_hflux_06   Type: Body heat flux
*Dflux
inst_plate.set_body_heat_00, BF, 8e+10
** 
** OUTPUT REQUESTS
** 
*Restart, write, frequency=0
** 
** FIELD OUTPUT: F-Output-1
** 
*Output, field
*Node Output
NT, RF, U
*Element Output, directions=YES
HFL, PEEQ, S
** 
** HISTORY OUTPUT: H-Output-1
** 
*Output, history
*Energy Output
ALLAE, ALLIE, ALLKE, ALLPD, ALLSD, ALLSE, ALLWK, ETOTAL
*End Step
** ----------------------------------------------------------------
** 
** STEP: step_cool_06
** 
*Step, name=step_cool_06, nlgeom=YES, inc=999999
*Coupled Temperature-displacement, creep=none, deltmx=400.
0.01, 3.4, 3.4e-30, 0.2
** 
** LOADS
** 
** Name: load_body_hflux_06   Type: Body heat flux
*Dflux, op=NEW
** 
** OUTPUT REQUESTS
** 
*Restart, write, frequency=0
** 
** FIELD OUTPUT: F-Output-1
** 
*Output, field
*Node Output
NT, RF, U
*Element Output, directions=YES
HFL, PEEQ, S
** 
** HISTORY OUTPUT: H-Output-1
** 
*Output, history
*Energy Output
ALLAE, ALLIE, ALLKE, ALLPD, ALLSD, ALLSE, ALLWK, ETOTAL
*End Step
** ----------------------------------------------------------------
** 
** STEP: step_scan_07
** 
*Step, name=step_scan_07, nlgeom=YES, inc=999999
*Coupled Temperature-displacement, creep=none, deltmx=400.
0.2, 0.2, 2e-06, 0.2
** 
** LOADS
** 
** Name: load_body_hflux_07   Type: Body heat flux
*Dflux
inst_plate.set_body_heat_02, BF, 8e+10
** 
** OUTPUT REQUESTS
** 
*Restart, write, frequency=0
** 
** FIELD OUTPUT: F-Output-1
** 
*Output, field
*Node Output
NT, RF, U
*Element Output, directions=YES
HFL, PEEQ, S
** 
** HISTORY OUTPUT: H-Output-1
** 
*Output, history
*Energy Output
ALLAE, ALLIE, ALLKE, ALLPD, ALLSD, ALLSE, ALLWK, ETOTAL
*End Step
** ----------------------------------------------------------------
** 
** STEP: step_cool_07
** 
*Step, name=step_cool_07, nlgeom=YES, inc=999999
*Coupled Temperature-displacement, creep=none, deltmx=400.
0.01, 3.4, 3.4e-30, 0.2
** 
** LOADS
** 
** Name: load_body_hflux_07   Type: Body heat flux
*Dflux, op=NEW
** 
** OUTPUT REQUESTS
** 
*Restart, write, frequency=0
** 
** FIELD OUTPUT: F-Output-1
** 
*Output, field
*Node Output
NT, RF, U
*Element Output, directions=YES
HFL, PEEQ, S
** 
** HISTORY OUTPUT: H-Output-1
** 
*Output, history
*Energy Output
ALLAE, ALLIE, ALLKE, ALLPD, ALLSD, ALLSE, ALLWK, ETOTAL
*End Step
** ----------------------------------------------------------------
** 
** STEP: step_scan_08
** 
*Step, name=step_scan_08, nlgeom=YES, inc=999999
*Coupled Temperature-displacement, creep=none, deltmx=400.
0.2, 0.2, 2e-06, 0.2
** 
** LOADS
** 
** Name: load_body_hflux_08   Type: Body heat flux
*Dflux
inst_plate.set_body_heat_04, BF, 8e+10
** 
** OUTPUT REQUESTS
** 
*Restart, write, frequency=0
** 
** FIELD OUTPUT: F-Output-1
** 
*Output, field
*Node Output
NT, RF, U
*Element Output, directions=YES
HFL, PEEQ, S
** 
** HISTORY OUTPUT: H-Output-1
** 
*Output, history
*Energy Output
ALLAE, ALLIE, ALLKE, ALLPD, ALLSD, ALLSE, ALLWK, ETOTAL
*End Step
** ----------------------------------------------------------------
** 
** STEP: step_cool_08
** 
*Step, name=step_cool_08, nlgeom=YES, inc=999999
*Coupled Temperature-displacement, creep=none, deltmx=400.
0.01, 3.4, 3.4e-30, 0.2
** 
** LOADS
** 
** Name: load_body_hflux_08   Type: Body heat flux
*Dflux, op=NEW
** 
** OUTPUT REQUESTS
** 
*Restart, write, frequency=0
** 
** FIELD OUTPUT: F-Output-1
** 
*Output, field
*Node Output
NT, RF, U
*Element Output, directions=YES
HFL, PEEQ, S
** 
** HISTORY OUTPUT: H-Output-1
** 
*Output, history
*Energy Output
ALLAE, ALLIE, ALLKE, ALLPD, ALLSD, ALLSE, ALLWK, ETOTAL
*End Step
** ----------------------------------------------------------------
** 
** STEP: step_scan_09
** 
*Step, name=step_scan_09, nlgeom=YES, inc=999999
*Coupled Temperature-displacement, creep=none, deltmx=400.
0.2, 0.2, 2e-06, 0.2
** 
** LOADS
** 
** Name: load_body_hflux_09   Type: Body heat flux
*Dflux
inst_plate.set_body_heat_06, BF, 8e+10
** 
** OUTPUT REQUESTS
** 
*Restart, write, frequency=0
** 
** FIELD OUTPUT: F-Output-1
** 
*Output, field
*Node Output
NT, RF, U
*Element Output, directions=YES
HFL, PEEQ, S
** 
** HISTORY OUTPUT: H-Output-1
** 
*Output, history
*Energy Output
ALLAE, ALLIE, ALLKE, ALLPD, ALLSD, ALLSE, ALLWK, ETOTAL
*End Step
** ----------------------------------------------------------------
** 
** STEP: step_cool_09
** 
*Step, name=step_cool_09, nlgeom=YES, inc=999999
*Coupled Temperature-displacement, creep=none, deltmx=400.
0.01, 3.4, 3.4e-30, 0.2
** 
** LOADS
** 
** Name: load_body_hflux_09   Type: Body heat flux
*Dflux, op=NEW
** 
** OUTPUT REQUESTS
** 
*Restart, write, frequency=0
** 
** FIELD OUTPUT: F-Output-1
** 
*Output, field
*Node Output
NT, RF, U
*Element Output, directions=YES
HFL, PEEQ, S
** 
** HISTORY OUTPUT: H-Output-1
** 
*Output, history
*Energy Output
ALLAE, ALLIE, ALLKE, ALLPD, ALLSD, ALLSE, ALLWK, ETOTAL
*End Step
** ----------------------------------------------------------------
** 
** STEP: step_scan_10
** 
*Step, name=step_scan_10, nlgeom=YES, inc=999999
*Coupled Temperature-displacement, creep=none, deltmx=400.
0.2, 0.2, 2e-06, 0.2
** 
** LOADS
** 
** Name: load_body_hflux_10   Type: Body heat flux
*Dflux
inst_plate.set_body_heat_08, BF, 8e+10
** 
** OUTPUT REQUESTS
** 
*Restart, write, frequency=0
** 
** FIELD OUTPUT: F-Output-1
** 
*Output, field
*Node Output
NT, RF, U
*Element Output, directions=YES
HFL, PEEQ, S
** 
** HISTORY OUTPUT: H-Output-1
** 
*Output, history
*Energy Output
ALLAE, ALLIE, ALLKE, ALLPD, ALLSD, ALLSE, ALLWK, ETOTAL
*End Step
** ----------------------------------------------------------------
** 
** STEP: step_cool_10
** 
*Step, name=step_cool_10, nlgeom=YES, inc=999999
*Coupled Temperature-displacement, creep=none, deltmx=400.
0.01, 3.4, 3.4e-30, 0.2
** 
** LOADS
** 
** Name: load_body_hflux_10   Type: Body heat flux
*Dflux, op=NEW
** 
** OUTPUT REQUESTS
** 
*Restart, write, frequency=0
** 
** FIELD OUTPUT: F-Output-1
** 
*Output, field
*Node Output
NT, RF, U
*Element Output, directions=YES
HFL, PEEQ, S
** 
** HISTORY OUTPUT: H-Output-1
** 
*Output, history
*Energy Output
ALLAE, ALLIE, ALLKE, ALLPD, ALLSD, ALLSE, ALLWK, ETOTAL
*End Step
** ----------------------------------------------------------------
** 
** STEP: step_scan_11
** 
*Step, name=step_scan_11, nlgeom=YES, inc=999999
*Coupled Temperature-displacement, creep=none, deltmx=400.
0.2, 0.2, 2e-06, 0.2
** 
** LOADS
** 
** Name: load_body_hflux_11   Type: Body heat flux
*Dflux
inst_plate.set_body_heat_10, BF, 8e+10
** 
** OUTPUT REQUESTS
** 
*Restart, write, frequency=0
** 
** FIELD OUTPUT: F-Output-1
** 
*Output, field
*Node Output
NT, RF, U
*Element Output, directions=YES
HFL, PEEQ, S
** 
** HISTORY OUTPUT: H-Output-1
** 
*Output, history
*Energy Output
ALLAE, ALLIE, ALLKE, ALLPD, ALLSD, ALLSE, ALLWK, ETOTAL
*End Step
** ----------------------------------------------------------------
** 
** STEP: step_cool_11
** 
*Step, name=step_cool_11, nlgeom=YES, inc=999999
*Coupled Temperature-displacement, creep=none, deltmx=400.
0.01, 3.4, 3.4e-30, 0.2
** 
** LOADS
** 
** Name: load_body_hflux_11   Type: Body heat flux
*Dflux, op=NEW
** 
** OUTPUT REQUESTS
** 
*Restart, write, frequency=0
** 
** FIELD OUTPUT: F-Output-1
** 
*Output, field
*Node Output
NT, RF, U
*Element Output, directions=YES
HFL, PEEQ, S
** 
** HISTORY OUTPUT: H-Output-1
** 
*Output, history
*Energy Output
ALLAE, ALLIE, ALLKE, ALLPD, ALLSD, ALLSE, ALLWK, ETOTAL
*End Step
** ----------------------------------------------------------------
** 
** STEP: step_final_cooling
** 
*Step, name=step_final_cooling, nlgeom=YES, inc=999999
*Coupled Temperature-displacement, creep=none, deltmx=400.
0.01, 1200., 3.4e-30, 60.
** 
** OUTPUT REQUESTS
** 
*Restart, write, frequency=0
** 
** FIELD OUTPUT: F-Output-1
** 
*Output, field
*Node Output
NT, RF, U
*Element Output, directions=YES
HFL, PEEQ, S
** 
** HISTORY OUTPUT: H-Output-1
** 
*Output, history
*Energy Output
ALLAE, ALLIE, ALLKE, ALLPD, ALLSD, ALLSE, ALLWK, ETOTAL
*End Step
