*Heading
** Job name: J2D_S3R24L64_N40_B21_sentinel_control Model name: Model-1
** Generated by: Abaqus/CAE 2024
*Preprint, echo=NO, model=NO, history=NO, contact=NO
**
** PARTS
**
*Part, name=part_plate
*Node
      1, 0.0820000023, 0.00200000009
      2, 0.0820000023,           0.
      3, 0.0839999989,           0.
      4, 0.0839999989, 0.00200000009
      5, 0.0820000023, 0.00300000003
      6, 0.0839999989, 0.00300000003
      7, 0.0799999982, 0.00200000009
      8, 0.0799999982,           0.
      9, 0.0799999982, 0.00300000003
     10, 0.0780000016, 0.00200000009
     11, 0.0780000016,           0.
     12, 0.0780000016, 0.00300000003
     13, 0.0759999976, 0.00200000009
     14, 0.0759999976,           0.
     15, 0.0759999976, 0.00300000003
     16,  0.074000001, 0.00200000009
     17,  0.074000001,           0.
     18,  0.074000001, 0.00300000003
     19, 0.0719999969, 0.00200000009
     20, 0.0719999969,           0.
** ... 1163 like lines cut
*Element, type=CPE4T
 1,   1, 130, 680, 141
 2, 130, 131, 681, 680
 3, 131, 132, 682, 681
 4, 132,   2, 133, 682
 5, 141, 680, 683, 140
 6, 680, 681, 684, 683
 7, 681, 682, 685, 684
 8, 682, 133, 134, 685
 9, 140, 683, 686, 139
10, 683, 684, 687, 686
11, 684, 685, 688, 687
12, 685, 134, 135, 688
13, 139, 686, 138,   4
14, 686, 687, 137, 138
15, 687, 688, 136, 137
16, 688, 135,   3, 136
17,   5, 142, 689, 146
18, 142,   1, 141, 689
19, 146, 689, 690, 145
20, 689, 141, 140, 690
** ... 988 like lines cut
*Nset, nset=section_all, generate
    1,  1183,     1
*Elset, elset=section_all, generate
    1,  1008,     1
*Nset, nset=set_body_heat_00
  121,  123,  124,  128,  650,  660,  661,  662,  672,  673,  674,  675, 1178, 1179, 1180
*Elset, elset=set_body_heat_00, generate
  993,  1000,     1
*Nset, nset=set_body_heat_01
  118,  120,  121,  123,  637,  647,  648,  649,  650,  651,  652,  653, 1157, 1158, 1159
*Elset, elset=set_body_heat_01, generate
 953,  960,    1
*Nset, nset=set_body_heat_02
  115,  117,  118,  120,  624,  634,  635,  636,  637,  638,  639,  640, 1145, 1146, 1147
*Elset, elset=set_body_heat_02, generate
 929,  936,    1
*Nset, nset=set_body_heat_03
  112,  114,  115,  117,  611,  621,  622,  623,  624,  625,  626,  627, 1133, 1134, 1135
*Elset, elset=set_body_heat_03, generate
 905,  912,    1
*Nset, nset=set_body_heat_04
  109,  111,  112,  114,  598,  608,  609,  610,  611,  612,  613,  614, 1121, 1122, 1123
*Elset, elset=set_body_heat_04, generate
 881,  888,    1
*Nset, nset=set_body_heat_05
  106,  108,  109,  111,  585,  595,  596,  597,  598,  599,  600,  601, 1109, 1110, 1111
*Elset, elset=set_body_heat_05, generate
 857,  864,    1
*Nset, nset=set_body_heat_06
  103,  105,  106,  108,  572,  582,  583,  584,  585,  586,  587,  588, 1097, 1098, 1099
*Elset, elset=set_body_heat_06, generate
 833,  840,    1
*Nset, nset=set_body_heat_07
  100,  102,  103,  105,  559,  569,  570,  571,  572,  573,  574,  575, 1085, 1086, 1087
*Elset, elset=set_body_heat_07, generate
 809,  816,    1
*Nset, nset=set_body_heat_08
   97,   99,  100,  102,  546,  556,  557,  558,  559,  560,  561,  562, 1073, 1074, 1075
*Elset, elset=set_body_heat_08, generate
 785,  792,    1
*Nset, nset=set_body_heat_09
   94,   96,   97,   99,  533,  543,  544,  545,  546,  547,  548,  549, 1061, 1062, 1063
*Elset, elset=set_body_heat_09, generate
 761,  768,    1
*Nset, nset=set_body_heat_10
   91,   93,   94,   96,  520,  530,  531,  532,  533,  534,  535,  536, 1049, 1050, 1051
*Elset, elset=set_body_heat_10, generate
 737,  744,    1
*Nset, nset=set_body_heat_11
   88,   90,   91,   93,  507,  517,  518,  519,  520,  521,  522,  523, 1037, 1038, 1039
*Elset, elset=set_body_heat_11, generate
 713,  720,    1
*Nset, nset=set_body_heat_12
   85,   87,   88,   90,  494,  504,  505,  506,  507,  508,  509,  510, 1025, 1026, 1027
*Elset, elset=set_body_heat_12, generate
 689,  696,    1
*Nset, nset=set_body_heat_13
   82,   84,   85,   87,  481,  491,  492,  493,  494,  495,  496,  497, 1013, 1014, 1015
*Elset, elset=set_body_heat_13, generate
 665,  672,    1
*Nset, nset=set_body_heat_14
   79,   81,   82,   84,  468,  478,  479,  480,  481,  482,  483,  484, 1001, 1002, 1003
*Elset, elset=set_body_heat_14, generate
 641,  648,    1
*Nset, nset=set_body_heat_15
  76,  78,  79,  81, 455, 465, 466, 467, 468, 469, 470, 471, 989, 990, 991
*Elset, elset=set_body_heat_15, generate
 617,  624,    1
*Nset, nset=set_body_heat_16
  73,  75,  76,  78, 442, 452, 453, 454, 455, 456, 457, 458, 977, 978, 979
*Elset, elset=set_body_heat_16, generate
 593,  600,    1
*Nset, nset=set_body_heat_17
  70,  72,  73,  75, 429, 439, 440, 441, 442, 443, 444, 445, 965, 966, 967
*Elset, elset=set_body_heat_17, generate
 569,  576,    1
*Nset, nset=set_body_heat_18
  67,  69,  70,  72, 416, 426, 427, 428, 429, 430, 431, 432, 953, 954, 955
*Elset, elset=set_body_heat_18, generate
 545,  552,    1
*Nset, nset=set_body_heat_19
  64,  66,  67,  69, 403, 413, 414, 415, 416, 417, 418, 419, 941, 942, 943
*Elset, elset=set_body_heat_19, generate
 521,  528,    1
*Nset, nset=set_body_heat_20
  61,  63,  64,  66, 390, 400, 401, 402, 403, 404, 405, 406, 929, 930, 931
*Elset, elset=set_body_heat_20, generate
 497,  504,    1
*Nset, nset=set_body_heat_21
  58,  60,  61,  63, 377, 387, 388, 389, 390, 391, 392, 393, 917, 918, 919
*Elset, elset=set_body_heat_21, generate
 473,  480,    1
*Nset, nset=set_body_heat_22
  55,  57,  58,  60, 364, 374, 375, 376, 377, 378, 379, 380, 905, 906, 907
*Elset, elset=set_body_heat_22, generate
 449,  456,    1
*Nset, nset=set_body_heat_23
  52,  54,  55,  57, 351, 361, 362, 363, 364, 365, 366, 367, 893, 894, 895
*Elset, elset=set_body_heat_23, generate
 425,  432,    1
*Nset, nset=set_body_heat_24
  49,  51,  52,  54, 338, 348, 349, 350, 351, 352, 353, 354, 881, 882, 883
*Elset, elset=set_body_heat_24, generate
 401,  408,    1
*Nset, nset=set_body_heat_25
  46,  48,  49,  51, 325, 335, 336, 337, 338, 339, 340, 341, 869, 870, 871
*Elset, elset=set_body_heat_25, generate
 377,  384,    1
*Nset, nset=set_body_heat_26
  43,  45,  46,  48, 312, 322, 323, 324, 325, 326, 327, 328, 857, 858, 859
*Elset, elset=set_body_heat_26, generate
 353,  360,    1
*Nset, nset=set_body_heat_27
  40,  42,  43,  45, 299, 309, 310, 311, 312, 313, 314, 315, 845, 846, 847
*Elset, elset=set_body_heat_27, generate
 329,  336,    1
*Nset, nset=set_body_heat_28
  37,  39,  40,  42, 286, 296, 297, 298, 299, 300, 301, 302, 833, 834, 835
*Elset, elset=set_body_heat_28, generate
 305,  312,    1
*Nset, nset=set_body_heat_29
  34,  36,  37,  39, 273, 283, 284, 285, 286, 287, 288, 289, 821, 822, 823
*Elset, elset=set_body_heat_29, generate
 281,  288,    1
*Nset, nset=set_body_heat_30
  31,  33,  34,  36, 260, 270, 271, 272, 273, 274, 275, 276, 809, 810, 811
*Elset, elset=set_body_heat_30, generate
 257,  264,    1
*Nset, nset=set_body_heat_31
  28,  30,  31,  33, 247, 257, 258, 259, 260, 261, 262, 263, 797, 798, 799
*Elset, elset=set_body_heat_31, generate
 233,  240,    1
*Nset, nset=set_body_heat_32
  25,  27,  28,  30, 234, 244, 245, 246, 247, 248, 249, 250, 785, 786, 787
*Elset, elset=set_body_heat_32, generate
 209,  216,    1
*Nset, nset=set_body_heat_33
  22,  24,  25,  27, 221, 231, 232, 233, 234, 235, 236, 237, 773, 774, 775
*Elset, elset=set_body_heat_33, generate
 185,  192,    1
*Nset, nset=set_body_heat_34
  19,  21,  22,  24, 208, 218, 219, 220, 221, 222, 223, 224, 761, 762, 763
*Elset, elset=set_body_heat_34, generate
 161,  168,    1
*Nset, nset=set_body_heat_35
  16,  18,  19,  21, 195, 205, 206, 207, 208, 209, 210, 211, 749, 750, 751
*Elset, elset=set_body_heat_35, generate
 137,  144,    1
*Nset, nset=set_body_heat_36
  13,  15,  16,  18, 182, 192, 193, 194, 195, 196, 197, 198, 737, 738, 739
*Elset, elset=set_body_heat_36, generate
 113,  120,    1
*Nset, nset=set_body_heat_37
  10,  12,  13,  15, 169, 179, 180, 181, 182, 183, 184, 185, 725, 726, 727
*Elset, elset=set_body_heat_37, generate
 89,  96,   1
*Nset, nset=set_body_heat_38
   7,   9,  10,  12, 156, 160, 161, 162, 169, 170, 171, 172, 713, 714, 715
*Elset, elset=set_body_heat_38, generate
 65,  72,   1
*Nset, nset=set_body_heat_39
   1,   5,   7,   9, 142, 153, 154, 155, 156, 157, 158, 159, 701, 702, 703
*Elset, elset=set_body_heat_39, generate
 41,  48,   1
*Elset, elset=_surf_external_all_S2, internal
    4,    8,   12,   16,   28,   32,   36,   40,   76,   80,   84,   88,  100,  104,  108,  112
  124,  128,  132,  136,  148,  152,  156,  160,  172,  176,  180,  184,  196,  200,  204,  208
  220,  224,  228,  232,  244,  248,  252,  256,  268,  272,  276,  280,  292,  296,  300,  304
  316,  320,  324,  328,  340,  344,  348,  352,  364,  368,  372,  376,  388,  392,  396,  400
  412,  416,  420,  424,  436,  440,  444,  448,  460,  464,  468,  472,  484,  488,  492,  496
  508,  512,  516,  520,  532,  536,  540,  544,  556,  560,  564,  568,  580,  584,  588,  592
  604,  608,  612,  616,  628,  632,  636,  640,  652,  656,  660,  664,  676,  680,  684,  688
  700,  704,  708,  712,  724,  728,  732,  736,  748,  752,  756,  760,  772,  776,  780,  784
  796,  800,  804,  808,  820,  824,  828,  832,  844,  848,  852,  856,  868,  872,  876,  880
  892,  896,  900,  904,  916,  920,  924,  928,  940,  944,  948,  952,  964,  968,  972,  976
  980,  984,  988,  992, 1002, 1004, 1006, 1008
*Elset, elset=_surf_external_all_S3, internal
   13,   14,   15,   16,   23,   24,  989,  990,  991,  992, 1007, 1008
*Elset, elset=_surf_external_all_S4, internal
  17,  19,  21,  23,  41,  43,  45,  47,  49,  53,  57,  61,  65,  67,  69,  71
  89,  91,  93,  95, 113, 115, 117, 119, 137, 139, 141, 143, 161, 163, 165, 167
 185, 187, 189, 191, 209, 211, 213, 215, 233, 235, 237, 239, 257, 259, 261, 263
 281, 283, 285, 287, 305, 307, 309, 311, 329, 331, 333, 335, 353, 355, 357, 359
 377, 379, 381, 383, 401, 403, 405, 407, 425, 427, 429, 431, 449, 451, 453, 455
 473, 475, 477, 479, 497, 499, 501, 503, 521, 523, 525, 527, 545, 547, 549, 551
 569, 571, 573, 575, 593, 595, 597, 599, 617, 619, 621, 623, 641, 643, 645, 647
 665, 667, 669, 671, 689, 691, 693, 695, 713, 715, 717, 719, 737, 739, 741, 743
 761, 763, 765, 767, 785, 787, 789, 791, 809, 811, 813, 815, 833, 835, 837, 839
 857, 859, 861, 863, 881, 883, 885, 887, 905, 907, 909, 911, 929, 931, 933, 935
 953, 955, 957, 959, 993, 995, 997, 999
*Surface, type=ELEMENT, name=surf_external_all
_surf_external_all_S2, S2
_surf_external_all_S3, S3
_surf_external_all_S4, S4
** Section: property_section_all
*Solid Section, elset=section_all, material="SS316L For AM"
,
*End Part
**  
**
** ASSEMBLY
**
*Assembly, name=Assembly
**  
*Instance, name=inst_plate, part=part_plate
*End Instance
**  
*Nset, nset=_PickedSet4, internal, instance=inst_plate
 127,
*Nset, nset=_PickedSet5, internal, instance=inst_plate
 3,
*End Assembly
** 
** MATERIALS
** 
** Material property of AISI Type 316L Steel in Additive Manufacturing
** 
*Material, name="SS316L For AM"
*Conductivity
  14.,  20.
  16., 100.
  17., 200.
  19., 400.
 21.5, 600.
  24., 800.
 26.5,1000.
  29.,1200.
  31.,1375.
  29.,1400.
  29.,1723.
  29.,3000.
*Density
7980.,  20.
7950., 100.
7920., 200.
7860., 400.
7800., 600.
7740., 800.
7680.,1000.
7620.,1200.
7580.,1375.
7450.,1400.
7300.,1723.
7200.,3000.
*Elastic
 2.08e+11,  0.3,  20.
 2.02e+11,  0.3, 100.
 1.94e+11,  0.3, 200.
 1.78e+11,  0.3, 400.
 1.62e+11,  0.3, 600.
 1.42e+11,  0.3, 800.
 1.12e+11,  0.3,1000.
  7.5e+10,  0.3,1200.
  1.5e+10,  0.3,1375.
    1e+08,  0.3,1400.
    1e+07,  0.3,1723.
    1e+06,  0.3,3000.
*Expansion
 1.48e-05,  20.
  1.6e-05, 100.
 1.68e-05, 200.
 1.78e-05, 400.
 1.87e-05, 600.
 1.96e-05, 800.
 2.02e-05,1000.
 2.08e-05,1200.
 2.15e-05,1375.
  2.2e-05,1400.
  2.2e-05,1723.
  2.2e-05,3000.
*Latent Heat
256000.,1375.,1400.
*Plastic
 5.8e+08,   0.,  20.
 5.3e+08,   0., 100.
 4.8e+08,   0., 200.
 4.1e+08,   0., 400.
 3.5e+08,   0., 600.
 2.1e+08,   0., 800.
   9e+07,   0.,1000.
   3e+07,   0.,1200.
   2e+06,   0.,1375.
  10000.,   0.,1400.
   5000.,   0.,1723.
   1000.,   0.,3000.
*Specific Heat
450.,  20.
480., 100.
505., 200.
540., 400.
570., 600.
600., 800.
635.,1000.
670.,1200.
700.,1375.
750.,1400.
760.,1723.
800.,3000.
** 
** PHYSICAL CONSTANTS
** 
*Physical Constants, absolute zero=-173.15, stefan boltzmann=5.67e-08
** 
** BOUNDARY CONDITIONS
** 
** Name: bc_point_xy Type: Displacement/Rotation
*Boundary
_PickedSet4, 1, 1
_PickedSet4, 2, 2
** Name: bc_point_y Type: Displacement/Rotation
*Boundary
_PickedSet5, 2, 2
** 
** PREDEFINED FIELDS
** 
** Name: predefined_temperature_all   Type: Temperature
*Initial Conditions, type=TEMPERATURE
inst_plate.section_all, 20.
** ----------------------------------------------------------------
** 
** STEP: step_scan_00
** 
*Step, name=step_scan_00, nlgeom=YES, inc=999999
*Coupled Temperature-displacement, creep=none, deltmx=400.
0.001, 0.2, 2e-30, 0.01
** 
** LOADS
** 
** Name: load_body_hflux_00   Type: Body heat flux
*Dflux
inst_plate.set_body_heat_37, BF, 8e+10
** 
** INTERACTIONS
** 
** Interaction: film_external_cooling
*Sfilm
inst_plate.surf_external_all, F, 20., 46.5
** Interaction: rad_external_ambient
*Sradiate
inst_plate.surf_external_all, R, 20., 0.285
** 
** OUTPUT REQUESTS
** 
*Restart, write, frequency=0
** 
** FIELD OUTPUT: F-Output-1
** 
*Output, field
*Node Output
NT, RF, U
*Element Output, directions=YES
HFL, PEEQ, S
** 
** HISTORY OUTPUT: H-Output-1
** 
*Output, history
*Energy Output
ALLAE, ALLIE, ALLKE, ALLPD, ALLSD, ALLSE, ALLWK, ETOTAL
*End Step
** ----------------------------------------------------------------
** 
** STEP: step_cool_00
** 
*Step, name=step_cool_00, nlgeom=YES, inc=999999
*Coupled Temperature-displacement, creep=none, deltmx=400.
0.1, 3.4, 3.4e-30, 0.2
** 
** LOADS
** 
** Name: load_body_hflux_00   Type: Body heat flux
*Dflux, op=NEW
** 
** OUTPUT REQUESTS
** 
*Restart, write, frequency=0
** 
** FIELD OUTPUT: F-Output-1
** 
*Output, field
*Node Output
NT, RF, U
*Element Output, directions=YES
HFL, PEEQ, S
** 
** HISTORY OUTPUT: H-Output-1
** 
*Output, history
*Energy Output
ALLAE, ALLIE, ALLKE, ALLPD, ALLSD, ALLSE, ALLWK, ETOTAL
*End Step
** ----------------------------------------------------------------
** 
** STEP: step_scan_01
** 
*Step, name=step_scan_01, nlgeom=YES, inc=999999
*Coupled Temperature-displacement, creep=none, deltmx=400.
0.001, 0.2, 2e-30, 0.01
** 
** LOADS
** 
** Name: load_body_hflux_01   Type: Body heat flux
*Dflux
inst_plate.set_body_heat_28, BF, 8e+10
** 
** OUTPUT REQUESTS
** 
*Restart, write, frequency=0
** 
** FIELD OUTPUT: F-Output-1
** 
*Output, field
*Node Output
NT, RF, U
*Element Output, directions=YES
HFL, PEEQ, S
** 
** HISTORY OUTPUT: H-Output-1
** 
*Output, history
*Energy Output
ALLAE, ALLIE, ALLKE, ALLPD, ALLSD, ALLSE, ALLWK, ETOTAL
*End Step
** ----------------------------------------------------------------
** 
** STEP: step_cool_01
** 
*Step, name=step_cool_01, nlgeom=YES, inc=999999
*Coupled Temperature-displacement, creep=none, deltmx=400.
0.1, 3.4, 3.4e-30, 0.2
** 
** LOADS
** 
** Name: load_body_hflux_01   Type: Body heat flux
*Dflux, op=NEW
** 
** OUTPUT REQUESTS
** 
*Restart, write, frequency=0
** 
** FIELD OUTPUT: F-Output-1
** 
*Output, field
*Node Output
NT, RF, U
*Element Output, directions=YES
HFL, PEEQ, S
** 
** HISTORY OUTPUT: H-Output-1
** 
*Output, history
*Energy Output
ALLAE, ALLIE, ALLKE, ALLPD, ALLSD, ALLSE, ALLWK, ETOTAL
*End Step
** ----------------------------------------------------------------
** 
** STEP: step_scan_02
** 
*Step, name=step_scan_02, nlgeom=YES, inc=999999
*Coupled Temperature-displacement, creep=none, deltmx=400.
0.001, 0.2, 2e-30, 0.01
** 
** LOADS
** 
** Name: load_body_hflux_02   Type: Body heat flux
*Dflux
inst_plate.set_body_heat_17, BF, 8e+10
** 
** OUTPUT REQUESTS
** 
*Restart, write, frequency=0
** 
** FIELD OUTPUT: F-Output-1
** 
*Output, field
*Node Output
NT, RF, U
*Element Output, directions=YES
HFL, PEEQ, S
** 
** HISTORY OUTPUT: H-Output-1
** 
*Output, history
*Energy Output
ALLAE, ALLIE, ALLKE, ALLPD, ALLSD, ALLSE, ALLWK, ETOTAL
*End Step
** ----------------------------------------------------------------
** 
** STEP: step_cool_02
** 
*Step, name=step_cool_02, nlgeom=YES, inc=999999
*Coupled Temperature-displacement, creep=none, deltmx=400.
0.1, 3.4, 3.4e-30, 0.2
** 
** LOADS
** 
** Name: load_body_hflux_02   Type: Body heat flux
*Dflux, op=NEW
** 
** OUTPUT REQUESTS
** 
*Restart, write, frequency=0
** 
** FIELD OUTPUT: F-Output-1
** 
*Output, field
*Node Output
NT, RF, U
*Element Output, directions=YES
HFL, PEEQ, S
** 
** HISTORY OUTPUT: H-Output-1
** 
*Output, history
*Energy Output
ALLAE, ALLIE, ALLKE, ALLPD, ALLSD, ALLSE, ALLWK, ETOTAL
*End Step
** ----------------------------------------------------------------
** 
** STEP: step_scan_03
** 
*Step, name=step_scan_03, nlgeom=YES, inc=999999
*Coupled Temperature-displacement, creep=none, deltmx=400.
0.001, 0.2, 2e-30, 0.01
** 
** LOADS
** 
** Name: load_body_hflux_03   Type: Body heat flux
*Dflux
inst_plate.set_body_heat_24, BF, 8e+10
** 
** OUTPUT REQUESTS
** 
*Restart, write, frequency=0
** 
** FIELD OUTPUT: F-Output-1
** 
*Output, field
*Node Output
NT, RF, U
*Element Output, directions=YES
HFL, PEEQ, S
** 
** HISTORY OUTPUT: H-Output-1
** 
*Output, history
*Energy Output
ALLAE, ALLIE, ALLKE, ALLPD, ALLSD, ALLSE, ALLWK, ETOTAL
*End Step
** ----------------------------------------------------------------
** 
** STEP: step_cool_03
** 
*Step, name=step_cool_03, nlgeom=YES, inc=999999
*Coupled Temperature-displacement, creep=none, deltmx=400.
0.1, 3.4, 3.4e-30, 0.2
** 
** LOADS
** 
** Name: load_body_hflux_03   Type: Body heat flux
*Dflux, op=NEW
** 
** OUTPUT REQUESTS
** 
*Restart, write, frequency=0
** 
** FIELD OUTPUT: F-Output-1
** 
*Output, field
*Node Output
NT, RF, U
*Element Output, directions=YES
HFL, PEEQ, S
** 
** HISTORY OUTPUT: H-Output-1
** 
*Output, history
*Energy Output
ALLAE, ALLIE, ALLKE, ALLPD, ALLSD, ALLSE, ALLWK, ETOTAL
*End Step
** ----------------------------------------------------------------
** 
** STEP: step_scan_04
** 
*Step, name=step_scan_04, nlgeom=YES, inc=999999
*Coupled Temperature-displacement, creep=none, deltmx=400.
0.001, 0.2, 2e-30, 0.01
** 
** LOADS
** 
** Name: load_body_hflux_04   Type: Body heat flux
*Dflux
inst_plate.set_body_heat_29, BF, 8e+10
** 
** OUTPUT REQUESTS
** 
*Restart, write, frequency=0
** 
** FIELD OUTPUT: F-Output-1
** 
*Output, field
*Node Output
NT, RF, U
*Element Output, directions=YES
HFL, PEEQ, S
** 
** HISTORY OUTPUT: H-Output-1
** 
*Output, history
*Energy Output
ALLAE, ALLIE, ALLKE, ALLPD, ALLSD, ALLSE, ALLWK, ETOTAL
*End Step
** ----------------------------------------------------------------
** 
** STEP: step_cool_04
** 
*Step, name=step_cool_04, nlgeom=YES, inc=999999
*Coupled Temperature-displacement, creep=none, deltmx=400.
0.1, 3.4, 3.4e-30, 0.2
** 
** LOADS
** 
** Name: load_body_hflux_04   Type: Body heat flux
*Dflux, op=NEW
** 
** OUTPUT REQUESTS
** 
*Restart, write, frequency=0
** 
** FIELD OUTPUT: F-Output-1
** 
*Output, field
*Node Output
NT, RF, U
*Element Output, directions=YES
HFL, PEEQ, S
** 
** HISTORY OUTPUT: H-Output-1
** 
*Output, history
*Energy Output
ALLAE, ALLIE, ALLKE, ALLPD, ALLSD, ALLSE, ALLWK, ETOTAL
*End Step
** ----------------------------------------------------------------
** 
** STEP: step_scan_05
** 
*Step, name=step_scan_05, nlgeom=YES, inc=999999
*Coupled Temperature-displacement, creep=none, deltmx=400.
0.001, 0.2, 2e-30, 0.01
** 
** LOADS
** 
** Name: load_body_hflux_05   Type: Body heat flux
*Dflux
inst_plate.set_body_heat_18, BF, 8e+10
** 
** OUTPUT REQUESTS
** 
*Restart, write, frequency=0
** 
** FIELD OUTPUT: F-Output-1
** 
*Output, field
*Node Output
NT, RF, U
*Element Output, directions=YES
HFL, PEEQ, S
** 
** HISTORY OUTPUT: H-Output-1
** 
*Output, history
*Energy Output
ALLAE, ALLIE, ALLKE, ALLPD, ALLSD, ALLSE, ALLWK, ETOTAL
*End Step
** ----------------------------------------------------------------
** 
** STEP: step_cool_05
** 
*Step, name=step_cool_05, nlgeom=YES, inc=999999
*Coupled Temperature-displacement, creep=none, deltmx=400.
0.1, 3.4, 3.4e-30, 0.2
** 
** LOADS
** 
** Name: load_body_hflux_05   Type: Body heat flux
*Dflux, op=NEW
** 
** OUTPUT REQUESTS
** 
*Restart, write, frequency=0
** 
** FIELD OUTPUT: F-Output-1
** 
*Output, field
*Node Output
NT, RF, U
*Element Output, directions=YES
HFL, PEEQ, S
** 
** HISTORY OUTPUT: H-Output-1
** 
*Output, history
*Energy Output
ALLAE, ALLIE, ALLKE, ALLPD, ALLSD, ALLSE, ALLWK, ETOTAL
*End Step
** ----------------------------------------------------------------
** 
** STEP: step_scan_06
** 
*Step, name=step_scan_06, nlgeom=YES, inc=999999
*Coupled Temperature-displacement, creep=none, deltmx=400.
0.001, 0.2, 2e-30, 0.01
** 
** LOADS
** 
** Name: load_body_hflux_06   Type: Body heat flux
*Dflux
inst_plate.set_body_heat_39, BF, 8e+10
** 
** OUTPUT REQUESTS
** 
*Restart, write, frequency=0
** 
** FIELD OUTPUT: F-Output-1
** 
*Output, field
*Node Output
NT, RF, U
*Element Output, directions=YES
HFL, PEEQ, S
** 
** HISTORY OUTPUT: H-Output-1
** 
*Output, history
*Energy Output
ALLAE, ALLIE, ALLKE, ALLPD, ALLSD, ALLSE, ALLWK, ETOTAL
*End Step
** ----------------------------------------------------------------
** 
** STEP: step_cool_06
** 
*Step, name=step_cool_06, nlgeom=YES, inc=999999
*Coupled Temperature-displacement, creep=none, deltmx=400.
0.1, 3.4, 3.4e-30, 0.2
** 
** LOADS
** 
** Name: load_body_hflux_06   Type: Body heat flux
*Dflux, op=NEW
** 
** OUTPUT REQUESTS
** 
*Restart, write, frequency=0
** 
** FIELD OUTPUT: F-Output-1
** 
*Output, field
*Node Output
NT, RF, U
*Element Output, directions=YES
HFL, PEEQ, S
** 
** HISTORY OUTPUT: H-Output-1
** 
*Output, history
*Energy Output
ALLAE, ALLIE, ALLKE, ALLPD, ALLSD, ALLSE, ALLWK, ETOTAL
*End Step
** ----------------------------------------------------------------
** 
** STEP: step_scan_07
** 
*Step, name=step_scan_07, nlgeom=YES, inc=999999
*Coupled Temperature-displacement, creep=none, deltmx=400.
0.001, 0.2, 2e-30, 0.01
** 
** LOADS
** 
** Name: load_body_hflux_07   Type: Body heat flux
*Dflux
inst_plate.set_body_heat_32, BF, 8e+10
** 
** OUTPUT REQUESTS
** 
*Restart, write, frequency=0
** 
** FIELD OUTPUT: F-Output-1
** 
*Output, field
*Node Output
NT, RF, U
*Element Output, directions=YES
HFL, PEEQ, S
** 
** HISTORY OUTPUT: H-Output-1
** 
*Output, history
*Energy Output
ALLAE, ALLIE, ALLKE, ALLPD, ALLSD, ALLSE, ALLWK, ETOTAL
*End Step
** ----------------------------------------------------------------
** 
** STEP: step_cool_07
** 
*Step, name=step_cool_07, nlgeom=YES, inc=999999
*Coupled Temperature-displacement, creep=none, deltmx=400.
0.1, 3.4, 3.4e-30, 0.2
** 
** LOADS
** 
** Name: load_body_hflux_07   Type: Body heat flux
*Dflux, op=NEW
** 
** OUTPUT REQUESTS
** 
*Restart, write, frequency=0
** 
** FIELD OUTPUT: F-Output-1
** 
*Output, field
*Node Output
NT, RF, U
*Element Output, directions=YES
HFL, PEEQ, S
** 
** HISTORY OUTPUT: H-Output-1
** 
*Output, history
*Energy Output
ALLAE, ALLIE, ALLKE, ALLPD, ALLSD, ALLSE, ALLWK, ETOTAL
*End Step
** ----------------------------------------------------------------
** 
** STEP: step_scan_08
** 
*Step, name=step_scan_08, nlgeom=YES, inc=999999
*Coupled Temperature-displacement, creep=none, deltmx=400.
0.001, 0.2, 2e-30, 0.01
** 
** LOADS
** 
** Name: load_body_hflux_08   Type: Body heat flux
*Dflux
inst_plate.set_body_heat_07, BF, 8e+10
** 
** OUTPUT REQUESTS
** 
*Restart, write, frequency=0
** 
** FIELD OUTPUT: F-Output-1
** 
*Output, field
*Node Output
NT, RF, U
*Element Output, directions=YES
HFL, PEEQ, S
** 
** HISTORY OUTPUT: H-Output-1
** 
*Output, history
*Energy Output
ALLAE, ALLIE, ALLKE, ALLPD, ALLSD, ALLSE, ALLWK, ETOTAL
*End Step
** ----------------------------------------------------------------
** 
** STEP: step_cool_08
** 
*Step, name=step_cool_08, nlgeom=YES, inc=999999
*Coupled Temperature-displacement, creep=none, deltmx=400.
0.1, 3.4, 3.4e-30, 0.2
** 
** LOADS
** 
** Name: load_body_hflux_08   Type: Body heat flux
*Dflux, op=NEW
** 
** OUTPUT REQUESTS
** 
*Restart, write, frequency=0
** 
** FIELD OUTPUT: F-Output-1
** 
*Output, field
*Node Output
NT, RF, U
*Element Output, directions=YES
HFL, PEEQ, S
** 
** HISTORY OUTPUT: H-Output-1
** 
*Output, history
*Energy Output
ALLAE, ALLIE, ALLKE, ALLPD, ALLSD, ALLSE, ALLWK, ETOTAL
*End Step
** ----------------------------------------------------------------
** 
** STEP: step_scan_09
** 
*Step, name=step_scan_09, nlgeom=YES, inc=999999
*Coupled Temperature-displacement, creep=none, deltmx=400.
0.001, 0.2, 2e-30, 0.01
** 
** LOADS
** 
** Name: load_body_hflux_09   Type: Body heat flux
*Dflux
inst_plate.set_body_heat_34, BF, 8e+10
** 
** OUTPUT REQUESTS
** 
*Restart, write, frequency=0
** 
** FIELD OUTPUT: F-Output-1
** 
*Output, field
*Node Output
NT, RF, U
*Element Output, directions=YES
HFL, PEEQ, S
** 
** HISTORY OUTPUT: H-Output-1
** 
*Output, history
*Energy Output
ALLAE, ALLIE, ALLKE, ALLPD, ALLSD, ALLSE, ALLWK, ETOTAL
*End Step
** ----------------------------------------------------------------
** 
** STEP: step_cool_09
** 
*Step, name=step_cool_09, nlgeom=YES, inc=999999
*Coupled Temperature-displacement, creep=none, deltmx=400.
0.1, 3.4, 3.4e-30, 0.2
** 
** LOADS
** 
** Name: load_body_hflux_09   Type: Body heat flux
*Dflux, op=NEW
** 
** OUTPUT REQUESTS
** 
*Restart, write, frequency=0
** 
** FIELD OUTPUT: F-Output-1
** 
*Output, field
*Node Output
NT, RF, U
*Element Output, directions=YES
HFL, PEEQ, S
** 
** HISTORY OUTPUT: H-Output-1
** 
*Output, history
*Energy Output
ALLAE, ALLIE, ALLKE, ALLPD, ALLSD, ALLSE, ALLWK, ETOTAL
*End Step
** ----------------------------------------------------------------
** 
** STEP: step_scan_10
** 
*Step, name=step_scan_10, nlgeom=YES, inc=999999
*Coupled Temperature-displacement, creep=none, deltmx=400.
0.001, 0.2, 2e-30, 0.01
** 
** LOADS
** 
** Name: load_body_hflux_10   Type: Body heat flux
*Dflux
inst_plate.set_body_heat_33, BF, 8e+10
** 
** OUTPUT REQUESTS
** 
*Restart, write, frequency=0
** 
** FIELD OUTPUT: F-Output-1
** 
*Output, field
*Node Output
NT, RF, U
*Element Output, directions=YES
HFL, PEEQ, S
** 
** HISTORY OUTPUT: H-Output-1
** 
*Output, history
*Energy Output
ALLAE, ALLIE, ALLKE, ALLPD, ALLSD, ALLSE, ALLWK, ETOTAL
*End Step
** ----------------------------------------------------------------
** 
** STEP: step_cool_10
** 
*Step, name=step_cool_10, nlgeom=YES, inc=999999
*Coupled Temperature-displacement, creep=none, deltmx=400.
0.1, 3.4, 3.4e-30, 0.2
** 
** LOADS
** 
** Name: load_body_hflux_10   Type: Body heat flux
*Dflux, op=NEW
** 
** OUTPUT REQUESTS
** 
*Restart, write, frequency=0
** 
** FIELD OUTPUT: F-Output-1
** 
*Output, field
*Node Output
NT, RF, U
*Element Output, directions=YES
HFL, PEEQ, S
** 
** HISTORY OUTPUT: H-Output-1
** 
*Output, history
*Energy Output
ALLAE, ALLIE, ALLKE, ALLPD, ALLSD, ALLSE, ALLWK, ETOTAL
*End Step
** ----------------------------------------------------------------
** 
** STEP: step_scan_11
** 
*Step, name=step_scan_11, nlgeom=YES, inc=999999
*Coupled Temperature-displacement, creep=none, deltmx=400.
0.001, 0.2, 2e-30, 0.01
** 
** LOADS
** 
** Name: load_body_hflux_11   Type: Body heat flux
*Dflux
inst_plate.set_body_heat_14, BF, 8e+10
** 
** OUTPUT REQUESTS
** 
*Restart, write, frequency=0
** 
** FIELD OUTPUT: F-Output-1
** 
*Output, field
*Node Output
NT, RF, U
*Element Output, directions=YES
HFL, PEEQ, S
** 
** HISTORY OUTPUT: H-Output-1
** 
*Output, history
*Energy Output
ALLAE, ALLIE, ALLKE, ALLPD, ALLSD, ALLSE, ALLWK, ETOTAL
*End Step
** ----------------------------------------------------------------
** 
** STEP: step_cool_11
** 
*Step, name=step_cool_11, nlgeom=YES, inc=999999
*Coupled Temperature-displacement, creep=none, deltmx=400.
0.1, 3.4, 3.4e-30, 0.2
** 
** LOADS
** 
** Name: load_body_hflux_11   Type: Body heat flux
*Dflux, op=NEW
** 
** OUTPUT REQUESTS
** 
*Restart, write, frequency=0
** 
** FIELD OUTPUT: F-Output-1
** 
*Output, field
*Node Output
NT, RF, U
*Element Output, directions=YES
HFL, PEEQ, S
** 
** HISTORY OUTPUT: H-Output-1
** 
*Output, history
*Energy Output
ALLAE, ALLIE, ALLKE, ALLPD, ALLSD, ALLSE, ALLWK, ETOTAL
*End Step
** ----------------------------------------------------------------
** 
** STEP: step_scan_12
** 
*Step, name=step_scan_12, nlgeom=YES, inc=999999
*Coupled Temperature-displacement, creep=none, deltmx=400.
0.001, 0.2, 2e-30, 0.01
** 
** LOADS
** 
** Name: load_body_hflux_12   Type: Body heat flux
*Dflux
inst_plate.set_body_heat_09, BF, 8e+10
** 
** OUTPUT REQUESTS
** 
*Restart, write, frequency=0
** 
** FIELD OUTPUT: F-Output-1
** 
*Output, field
*Node Output
NT, RF, U
*Element Output, directions=YES
HFL, PEEQ, S
** 
** HISTORY OUTPUT: H-Output-1
** 
*Output, history
*Energy Output
ALLAE, ALLIE, ALLKE, ALLPD, ALLSD, ALLSE, ALLWK, ETOTAL
*End Step
** ----------------------------------------------------------------
** 
** STEP: step_cool_12
** 
*Step, name=step_cool_12, nlgeom=YES, inc=999999
*Coupled Temperature-displacement, creep=none, deltmx=400.
0.1, 3.4, 3.4e-30, 0.2
** 
** LOADS
** 
** Name: load_body_hflux_12   Type: Body heat flux
*Dflux, op=NEW
** 
** OUTPUT REQUESTS
** 
*Restart, write, frequency=0
** 
** FIELD OUTPUT: F-Output-1
** 
*Output, field
*Node Output
NT, RF, U
*Element Output, directions=YES
HFL, PEEQ, S
** 
** HISTORY OUTPUT: H-Output-1
** 
*Output, history
*Energy Output
ALLAE, ALLIE, ALLKE, ALLPD, ALLSD, ALLSE, ALLWK, ETOTAL
*End Step
** ----------------------------------------------------------------
** 
** STEP: step_scan_13
** 
*Step, name=step_scan_13, nlgeom=YES, inc=999999
*Coupled Temperature-displacement, creep=none, deltmx=400.
0.001, 0.2, 2e-30, 0.01
** 
** LOADS
** 
** Name: load_body_hflux_13   Type: Body heat flux
*Dflux
inst_plate.set_body_heat_08, BF, 8e+10
** 
** OUTPUT REQUESTS
** 
*Restart, write, frequency=0
** 
** FIELD OUTPUT: F-Output-1
** 
*Output, field
*Node Output
NT, RF, U
*Element Output, directions=YES
HFL, PEEQ, S
** 
** HISTORY OUTPUT: H-Output-1
** 
*Output, history
*Energy Output
ALLAE, ALLIE, ALLKE, ALLPD, ALLSD, ALLSE, ALLWK, ETOTAL
*End Step
** ----------------------------------------------------------------
** 
** STEP: step_cool_13
** 
*Step, name=step_cool_13, nlgeom=YES, inc=999999
*Coupled Temperature-displacement, creep=none, deltmx=400.
0.1, 3.4, 3.4e-30, 0.2
** 
** LOADS
** 
** Name: load_body_hflux_13   Type: Body heat flux
*Dflux, op=NEW
** 
** OUTPUT REQUESTS
** 
*Restart, write, frequency=0
** 
** FIELD OUTPUT: F-Output-1
** 
*Output, field
*Node Output
NT, RF, U
*Element Output, directions=YES
HFL, PEEQ, S
** 
** HISTORY OUTPUT: H-Output-1
** 
*Output, history
*Energy Output
ALLAE, ALLIE, ALLKE, ALLPD, ALLSD, ALLSE, ALLWK, ETOTAL
*End Step
** ----------------------------------------------------------------
** 
** STEP: step_scan_14
** 
*Step, name=step_scan_14, nlgeom=YES, inc=999999
*Coupled Temperature-displacement, creep=none, deltmx=400.
0.001, 0.2, 2e-30, 0.01
** 
** LOADS
** 
** Name: load_body_hflux_14   Type: Body heat flux
*Dflux
inst_plate.set_body_heat_11, BF, 8e+10
** 
** OUTPUT REQUESTS
** 
*Restart, write, frequency=0
** 
** FIELD OUTPUT: F-Output-1
** 
*Output, field
*Node Output
NT, RF, U
*Element Output, directions=YES
HFL, PEEQ, S
** 
** HISTORY OUTPUT: H-Output-1
** 
*Output, history
*Energy Output
ALLAE, ALLIE, ALLKE, ALLPD, ALLSD, ALLSE, ALLWK, ETOTAL
*End Step
** ----------------------------------------------------------------
** 
** STEP: step_cool_14
** 
*Step, name=step_cool_14, nlgeom=YES, inc=999999
*Coupled Temperature-displacement, creep=none, deltmx=400.
0.1, 3.4, 3.4e-30, 0.2
** 
** LOADS
** 
** Name: load_body_hflux_14   Type: Body heat flux
*Dflux, op=NEW
** 
** OUTPUT REQUESTS
** 
*Restart, write, frequency=0
** 
** FIELD OUTPUT: F-Output-1
** 
*Output, field
*Node Output
NT, RF, U
*Element Output, directions=YES
HFL, PEEQ, S
** 
** HISTORY OUTPUT: H-Output-1
** 
*Output, history
*Energy Output
ALLAE, ALLIE, ALLKE, ALLPD, ALLSD, ALLSE, ALLWK, ETOTAL
*End Step
** ----------------------------------------------------------------
** 
** STEP: step_scan_15
** 
*Step, name=step_scan_15, nlgeom=YES, inc=999999
*Coupled Temperature-displacement, creep=none, deltmx=400.
0.001, 0.2, 2e-30, 0.01
** 
** LOADS
** 
** Name: load_body_hflux_15   Type: Body heat flux
*Dflux
inst_plate.set_body_heat_16, BF, 8e+10
** 
** OUTPUT REQUESTS
** 
*Restart, write, frequency=0
** 
** FIELD OUTPUT: F-Output-1
** 
*Output, field
*Node Output
NT, RF, U
*Element Output, directions=YES
HFL, PEEQ, S
** 
** HISTORY OUTPUT: H-Output-1
** 
*Output, history
*Energy Output
ALLAE, ALLIE, ALLKE, ALLPD, ALLSD, ALLSE, ALLWK, ETOTAL
*End Step
** ----------------------------------------------------------------
** 
** STEP: step_cool_15
** 
*Step, name=step_cool_15, nlgeom=YES, inc=999999
*Coupled Temperature-displacement, creep=none, deltmx=400.
0.1, 3.4, 3.4e-30, 0.2
** 
** LOADS
** 
** Name: load_body_hflux_15   Type: Body heat flux
*Dflux, op=NEW
** 
** OUTPUT REQUESTS
** 
*Restart, write, frequency=0
** 
** FIELD OUTPUT: F-Output-1
** 
*Output, field
*Node Output
NT, RF, U
*Element Output, directions=YES
HFL, PEEQ, S
** 
** HISTORY OUTPUT: H-Output-1
** 
*Output, history
*Energy Output
ALLAE, ALLIE, ALLKE, ALLPD, ALLSD, ALLSE, ALLWK, ETOTAL
*End Step
** ----------------------------------------------------------------
** 
** STEP: step_scan_16
** 
*Step, name=step_scan_16, nlgeom=YES, inc=999999
*Coupled Temperature-displacement, creep=none, deltmx=400.
0.001, 0.2, 2e-30, 0.01
** 
** LOADS
** 
** Name: load_body_hflux_16   Type: Body heat flux
*Dflux
inst_plate.set_body_heat_05, BF, 8e+10
** 
** OUTPUT REQUESTS
** 
*Restart, write, frequency=0
** 
** FIELD OUTPUT: F-Output-1
** 
*Output, field
*Node Output
NT, RF, U
*Element Output, directions=YES
HFL, PEEQ, S
** 
** HISTORY OUTPUT: H-Output-1
** 
*Output, history
*Energy Output
ALLAE, ALLIE, ALLKE, ALLPD, ALLSD, ALLSE, ALLWK, ETOTAL
*End Step
** ----------------------------------------------------------------
** 
** STEP: step_cool_16
** 
*Step, name=step_cool_16, nlgeom=YES, inc=999999
*Coupled Temperature-displacement, creep=none, deltmx=400.
0.1, 3.4, 3.4e-30, 0.2
** 
** LOADS
** 
** Name: load_body_hflux_16   Type: Body heat flux
*Dflux, op=NEW
** 
** OUTPUT REQUESTS
** 
*Restart, write, frequency=0
** 
** FIELD OUTPUT: F-Output-1
** 
*Output, field
*Node Output
NT, RF, U
*Element Output, directions=YES
HFL, PEEQ, S
** 
** HISTORY OUTPUT: H-Output-1
** 
*Output, history
*Energy Output
ALLAE, ALLIE, ALLKE, ALLPD, ALLSD, ALLSE, ALLWK, ETOTAL
*End Step
** ----------------------------------------------------------------
** 
** STEP: step_scan_17
** 
*Step, name=step_scan_17, nlgeom=YES, inc=999999
*Coupled Temperature-displacement, creep=none, deltmx=400.
0.001, 0.2, 2e-30, 0.01
** 
** LOADS
** 
** Name: load_body_hflux_17   Type: Body heat flux
*Dflux
inst_plate.set_body_heat_12, BF, 8e+10
** 
** OUTPUT REQUESTS
** 
*Restart, write, frequency=0
** 
** FIELD OUTPUT: F-Output-1
** 
*Output, field
*Node Output
NT, RF, U
*Element Output, directions=YES
HFL, PEEQ, S
** 
** HISTORY OUTPUT: H-Output-1
** 
*Output, history
*Energy Output
ALLAE, ALLIE, ALLKE, ALLPD, ALLSD, ALLSE, ALLWK, ETOTAL
*End Step
** ----------------------------------------------------------------
** 
** STEP: step_cool_17
** 
*Step, name=step_cool_17, nlgeom=YES, inc=999999
*Coupled Temperature-displacement, creep=none, deltmx=400.
0.1, 3.4, 3.4e-30, 0.2
** 
** LOADS
** 
** Name: load_body_hflux_17   Type: Body heat flux
*Dflux, op=NEW
** 
** OUTPUT REQUESTS
** 
*Restart, write, frequency=0
** 
** FIELD OUTPUT: F-Output-1
** 
*Output, field
*Node Output
NT, RF, U
*Element Output, directions=YES
HFL, PEEQ, S
** 
** HISTORY OUTPUT: H-Output-1
** 
*Output, history
*Energy Output
ALLAE, ALLIE, ALLKE, ALLPD, ALLSD, ALLSE, ALLWK, ETOTAL
*End Step
** ----------------------------------------------------------------
** 
** STEP: step_scan_18
** 
*Step, name=step_scan_18, nlgeom=YES, inc=999999
*Coupled Temperature-displacement, creep=none, deltmx=400.
0.001, 0.2, 2e-30, 0.01
** 
** LOADS
** 
** Name: load_body_hflux_18   Type: Body heat flux
*Dflux
inst_plate.set_body_heat_13, BF, 8e+10
** 
** OUTPUT REQUESTS
** 
*Restart, write, frequency=0
** 
** FIELD OUTPUT: F-Output-1
** 
*Output, field
*Node Output
NT, RF, U
*Element Output, directions=YES
HFL, PEEQ, S
** 
** HISTORY OUTPUT: H-Output-1
** 
*Output, history
*Energy Output
ALLAE, ALLIE, ALLKE, ALLPD, ALLSD, ALLSE, ALLWK, ETOTAL
*End Step
** ----------------------------------------------------------------
** 
** STEP: step_cool_18
** 
*Step, name=step_cool_18, nlgeom=YES, inc=999999
*Coupled Temperature-displacement, creep=none, deltmx=400.
0.1, 3.4, 3.4e-30, 0.2
** 
** LOADS
** 
** Name: load_body_hflux_18   Type: Body heat flux
*Dflux, op=NEW
** 
** OUTPUT REQUESTS
** 
*Restart, write, frequency=0
** 
** FIELD OUTPUT: F-Output-1
** 
*Output, field
*Node Output
NT, RF, U
*Element Output, directions=YES
HFL, PEEQ, S
** 
** HISTORY OUTPUT: H-Output-1
** 
*Output, history
*Energy Output
ALLAE, ALLIE, ALLKE, ALLPD, ALLSD, ALLSE, ALLWK, ETOTAL
*End Step
** ----------------------------------------------------------------
** 
** STEP: step_scan_19
** 
*Step, name=step_scan_19, nlgeom=YES, inc=999999
*Coupled Temperature-displacement, creep=none, deltmx=400.
0.001, 0.2, 2e-30, 0.01
** 
** LOADS
** 
** Name: load_body_hflux_19   Type: Body heat flux
*Dflux
inst_plate.set_body_heat_30, BF, 8e+10
** 
** OUTPUT REQUESTS
** 
*Restart, write, frequency=0
** 
** FIELD OUTPUT: F-Output-1
** 
*Output, field
*Node Output
NT, RF, U
*Element Output, directions=YES
HFL, PEEQ, S
** 
** HISTORY OUTPUT: H-Output-1
** 
*Output, history
*Energy Output
ALLAE, ALLIE, ALLKE, ALLPD, ALLSD, ALLSE, ALLWK, ETOTAL
*End Step
** ----------------------------------------------------------------
** 
** STEP: step_cool_19
** 
*Step, name=step_cool_19, nlgeom=YES, inc=999999
*Coupled Temperature-displacement, creep=none, deltmx=400.
0.1, 3.4, 3.4e-30, 0.2
** 
** LOADS
** 
** Name: load_body_hflux_19   Type: Body heat flux
*Dflux, op=NEW
** 
** OUTPUT REQUESTS
** 
*Restart, write, frequency=0
** 
** FIELD OUTPUT: F-Output-1
** 
*Output, field
*Node Output
NT, RF, U
*Element Output, directions=YES
HFL, PEEQ, S
** 
** HISTORY OUTPUT: H-Output-1
** 
*Output, history
*Energy Output
ALLAE, ALLIE, ALLKE, ALLPD, ALLSD, ALLSE, ALLWK, ETOTAL
*End Step
** ----------------------------------------------------------------
** 
** STEP: step_scan_20
** 
*Step, name=step_scan_20, nlgeom=YES, inc=999999
*Coupled Temperature-displacement, creep=none, deltmx=400.
0.001, 0.2, 2e-30, 0.01
** 
** LOADS
** 
** Name: load_body_hflux_20   Type: Body heat flux
*Dflux
inst_plate.set_body_heat_31, BF, 8e+10
** 
** OUTPUT REQUESTS
** 
*Restart, write, frequency=0
** 
** FIELD OUTPUT: F-Output-1
** 
*Output, field
*Node Output
NT, RF, U
*Element Output, directions=YES
HFL, PEEQ, S
** 
** HISTORY OUTPUT: H-Output-1
** 
*Output, history
*Energy Output
ALLAE, ALLIE, ALLKE, ALLPD, ALLSD, ALLSE, ALLWK, ETOTAL
*End Step
** ----------------------------------------------------------------
** 
** STEP: step_cool_20
** 
*Step, name=step_cool_20, nlgeom=YES, inc=999999
*Coupled Temperature-displacement, creep=none, deltmx=400.
0.1, 3.4, 3.4e-30, 0.2
** 
** LOADS
** 
** Name: load_body_hflux_20   Type: Body heat flux
*Dflux, op=NEW
** 
** OUTPUT REQUESTS
** 
*Restart, write, frequency=0
** 
** FIELD OUTPUT: F-Output-1
** 
*Output, field
*Node Output
NT, RF, U
*Element Output, directions=YES
HFL, PEEQ, S
** 
** HISTORY OUTPUT: H-Output-1
** 
*Output, history
*Energy Output
ALLAE, ALLIE, ALLKE, ALLPD, ALLSD, ALLSE, ALLWK, ETOTAL
*End Step
** ----------------------------------------------------------------
** 
** STEP: step_scan_21
** 
*Step, name=step_scan_21, nlgeom=YES, inc=999999
*Coupled Temperature-displacement, creep=none, deltmx=400.
0.001, 0.2, 2e-30, 0.01
** 
** LOADS
** 
** Name: load_body_hflux_21   Type: Body heat flux
*Dflux
inst_plate.set_body_heat_10, BF, 8e+10
** 
** OUTPUT REQUESTS
** 
*Restart, write, frequency=0
** 
** FIELD OUTPUT: F-Output-1
** 
*Output, field
*Node Output
NT, RF, U
*Element Output, directions=YES
HFL, PEEQ, S
** 
** HISTORY OUTPUT: H-Output-1
** 
*Output, history
*Energy Output
ALLAE, ALLIE, ALLKE, ALLPD, ALLSD, ALLSE, ALLWK, ETOTAL
*End Step
** ----------------------------------------------------------------
** 
** STEP: step_cool_21
** 
*Step, name=step_cool_21, nlgeom=YES, inc=999999
*Coupled Temperature-displacement, creep=none, deltmx=400.
0.1, 3.4, 3.4e-30, 0.2
** 
** LOADS
** 
** Name: load_body_hflux_21   Type: Body heat flux
*Dflux, op=NEW
** 
** OUTPUT REQUESTS
** 
*Restart, write, frequency=0
** 
** FIELD OUTPUT: F-Output-1
** 
*Output, field
*Node Output
NT, RF, U
*Element Output, directions=YES
HFL, PEEQ, S
** 
** HISTORY OUTPUT: H-Output-1
** 
*Output, history
*Energy Output
ALLAE, ALLIE, ALLKE, ALLPD, ALLSD, ALLSE, ALLWK, ETOTAL
*End Step
** ----------------------------------------------------------------
** 
** STEP: step_scan_22
** 
*Step, name=step_scan_22, nlgeom=YES, inc=999999
*Coupled Temperature-displacement, creep=none, deltmx=400.
0.001, 0.2, 2e-30, 0.01
** 
** LOADS
** 
** Name: load_body_hflux_22   Type: Body heat flux
*Dflux
inst_plate.set_body_heat_19, BF, 8e+10
** 
** OUTPUT REQUESTS
** 
*Restart, write, frequency=0
** 
** FIELD OUTPUT: F-Output-1
** 
*Output, field
*Node Output
NT, RF, U
*Element Output, directions=YES
HFL, PEEQ, S
** 
** HISTORY OUTPUT: H-Output-1
** 
*Output, history
*Energy Output
ALLAE, ALLIE, ALLKE, ALLPD, ALLSD, ALLSE, ALLWK, ETOTAL
*End Step
** ----------------------------------------------------------------
** 
** STEP: step_cool_22
** 
*Step, name=step_cool_22, nlgeom=YES, inc=999999
*Coupled Temperature-displacement, creep=none, deltmx=400.
0.1, 3.4, 3.4e-30, 0.2
** 
** LOADS
** 
** Name: load_body_hflux_22   Type: Body heat flux
*Dflux, op=NEW
** 
** OUTPUT REQUESTS
** 
*Restart, write, frequency=0
** 
** FIELD OUTPUT: F-Output-1
** 
*Output, field
*Node Output
NT, RF, U
*Element Output, directions=YES
HFL, PEEQ, S
** 
** HISTORY OUTPUT: H-Output-1
** 
*Output, history
*Energy Output
ALLAE, ALLIE, ALLKE, ALLPD, ALLSD, ALLSE, ALLWK, ETOTAL
*End Step
** ----------------------------------------------------------------
** 
** STEP: step_scan_23
** 
*Step, name=step_scan_23, nlgeom=YES, inc=999999
*Coupled Temperature-displacement, creep=none, deltmx=400.
0.001, 0.2, 2e-30, 0.01
** 
** LOADS
** 
** Name: load_body_hflux_23   Type: Body heat flux
*Dflux
inst_plate.set_body_heat_04, BF, 8e+10
** 
** OUTPUT REQUESTS
** 
*Restart, write, frequency=0
** 
** FIELD OUTPUT: F-Output-1
** 
*Output, field
*Node Output
NT, RF, U
*Element Output, directions=YES
HFL, PEEQ, S
** 
** HISTORY OUTPUT: H-Output-1
** 
*Output, history
*Energy Output
ALLAE, ALLIE, ALLKE, ALLPD, ALLSD, ALLSE, ALLWK, ETOTAL
*End Step
** ----------------------------------------------------------------
** 
** STEP: step_cool_23
** 
*Step, name=step_cool_23, nlgeom=YES, inc=999999
*Coupled Temperature-displacement, creep=none, deltmx=400.
0.1, 3.4, 3.4e-30, 0.2
** 
** LOADS
** 
** Name: load_body_hflux_23   Type: Body heat flux
*Dflux, op=NEW
** 
** OUTPUT REQUESTS
** 
*Restart, write, frequency=0
** 
** FIELD OUTPUT: F-Output-1
** 
*Output, field
*Node Output
NT, RF, U
*Element Output, directions=YES
HFL, PEEQ, S
** 
** HISTORY OUTPUT: H-Output-1
** 
*Output, history
*Energy Output
ALLAE, ALLIE, ALLKE, ALLPD, ALLSD, ALLSE, ALLWK, ETOTAL
*End Step
** ----------------------------------------------------------------
** 
** STEP: step_scan_24
** 
*Step, name=step_scan_24, nlgeom=YES, inc=999999
*Coupled Temperature-displacement, creep=none, deltmx=400.
0.001, 0.2, 2e-30, 0.01
** 
** LOADS
** 
** Name: load_body_hflux_24   Type: Body heat flux
*Dflux
inst_plate.set_body_heat_01, BF, 8e+10
** 
** OUTPUT REQUESTS
** 
*Restart, write, frequency=0
** 
** FIELD OUTPUT: F-Output-1
** 
*Output, field
*Node Output
NT, RF, U
*Element Output, directions=YES
HFL, PEEQ, S
** 
** HISTORY OUTPUT: H-Output-1
** 
*Output, history
*Energy Output
ALLAE, ALLIE, ALLKE, ALLPD, ALLSD, ALLSE, ALLWK, ETOTAL
*End Step
** ----------------------------------------------------------------
** 
** STEP: step_cool_24
** 
*Step, name=step_cool_24, nlgeom=YES, inc=999999
*Coupled Temperature-displacement, creep=none, deltmx=400.
0.1, 3.4, 3.4e-30, 0.2
** 
** LOADS
** 
** Name: load_body_hflux_24   Type: Body heat flux
*Dflux, op=NEW
** 
** OUTPUT REQUESTS
** 
*Restart, write, frequency=0
** 
** FIELD OUTPUT: F-Output-1
** 
*Output, field
*Node Output
NT, RF, U
*Element Output, directions=YES
HFL, PEEQ, S
** 
** HISTORY OUTPUT: H-Output-1
** 
*Output, history
*Energy Output
ALLAE, ALLIE, ALLKE, ALLPD, ALLSD, ALLSE, ALLWK, ETOTAL
*End Step
** ----------------------------------------------------------------
** 
** STEP: step_scan_25
** 
*Step, name=step_scan_25, nlgeom=YES, inc=999999
*Coupled Temperature-displacement, creep=none, deltmx=400.
0.001, 0.2, 2e-30, 0.01
** 
** LOADS
** 
** Name: load_body_hflux_25   Type: Body heat flux
*Dflux
inst_plate.set_body_heat_22, BF, 8e+10
** 
** OUTPUT REQUESTS
** 
*Restart, write, frequency=0
** 
** FIELD OUTPUT: F-Output-1
** 
*Output, field
*Node Output
NT, RF, U
*Element Output, directions=YES
HFL, PEEQ, S
** 
** HISTORY OUTPUT: H-Output-1
** 
*Output, history
*Energy Output
ALLAE, ALLIE, ALLKE, ALLPD, ALLSD, ALLSE, ALLWK, ETOTAL
*End Step
** ----------------------------------------------------------------
** 
** STEP: step_cool_25
** 
*Step, name=step_cool_25, nlgeom=YES, inc=999999
*Coupled Temperature-displacement, creep=none, deltmx=400.
0.1, 3.4, 3.4e-30, 0.2
** 
** LOADS
** 
** Name: load_body_hflux_25   Type: Body heat flux
*Dflux, op=NEW
** 
** OUTPUT REQUESTS
** 
*Restart, write, frequency=0
** 
** FIELD OUTPUT: F-Output-1
** 
*Output, field
*Node Output
NT, RF, U
*Element Output, directions=YES
HFL, PEEQ, S
** 
** HISTORY OUTPUT: H-Output-1
** 
*Output, history
*Energy Output
ALLAE, ALLIE, ALLKE, ALLPD, ALLSD, ALLSE, ALLWK, ETOTAL
*End Step
** ----------------------------------------------------------------
** 
** STEP: step_scan_26
** 
*Step, name=step_scan_26, nlgeom=YES, inc=999999
*Coupled Temperature-displacement, creep=none, deltmx=400.
0.001, 0.2, 2e-30, 0.01
** 
** LOADS
** 
** Name: load_body_hflux_26   Type: Body heat flux
*Dflux
inst_plate.set_body_heat_23, BF, 8e+10
** 
** OUTPUT REQUESTS
** 
*Restart, write, frequency=0
** 
** FIELD OUTPUT: F-Output-1
** 
*Output, field
*Node Output
NT, RF, U
*Element Output, directions=YES
HFL, PEEQ, S
** 
** HISTORY OUTPUT: H-Output-1
** 
*Output, history
*Energy Output
ALLAE, ALLIE, ALLKE, ALLPD, ALLSD, ALLSE, ALLWK, ETOTAL
*End Step
** ----------------------------------------------------------------
** 
** STEP: step_cool_26
** 
*Step, name=step_cool_26, nlgeom=YES, inc=999999
*Coupled Temperature-displacement, creep=none, deltmx=400.
0.1, 3.4, 3.4e-30, 0.2
** 
** LOADS
** 
** Name: load_body_hflux_26   Type: Body heat flux
*Dflux, op=NEW
** 
** OUTPUT REQUESTS
** 
*Restart, write, frequency=0
** 
** FIELD OUTPUT: F-Output-1
** 
*Output, field
*Node Output
NT, RF, U
*Element Output, directions=YES
HFL, PEEQ, S
** 
** HISTORY OUTPUT: H-Output-1
** 
*Output, history
*Energy Output
ALLAE, ALLIE, ALLKE, ALLPD, ALLSD, ALLSE, ALLWK, ETOTAL
*End Step
** ----------------------------------------------------------------
** 
** STEP: step_scan_27
** 
*Step, name=step_scan_27, nlgeom=YES, inc=999999
*Coupled Temperature-displacement, creep=none, deltmx=400.
0.001, 0.2, 2e-30, 0.01
** 
** LOADS
** 
** Name: load_body_hflux_27   Type: Body heat flux
*Dflux
inst_plate.set_body_heat_20, BF, 8e+10
** 
** OUTPUT REQUESTS
** 
*Restart, write, frequency=0
** 
** FIELD OUTPUT: F-Output-1
** 
*Output, field
*Node Output
NT, RF, U
*Element Output, directions=YES
HFL, PEEQ, S
** 
** HISTORY OUTPUT: H-Output-1
** 
*Output, history
*Energy Output
ALLAE, ALLIE, ALLKE, ALLPD, ALLSD, ALLSE, ALLWK, ETOTAL
*End Step
** ----------------------------------------------------------------
** 
** STEP: step_cool_27
** 
*Step, name=step_cool_27, nlgeom=YES, inc=999999
*Coupled Temperature-displacement, creep=none, deltmx=400.
0.1, 3.4, 3.4e-30, 0.2
** 
** LOADS
** 
** Name: load_body_hflux_27   Type: Body heat flux
*Dflux, op=NEW
** 
** OUTPUT REQUESTS
** 
*Restart, write, frequency=0
** 
** FIELD OUTPUT: F-Output-1
** 
*Output, field
*Node Output
NT, RF, U
*Element Output, directions=YES
HFL, PEEQ, S
** 
** HISTORY OUTPUT: H-Output-1
** 
*Output, history
*Energy Output
ALLAE, ALLIE, ALLKE, ALLPD, ALLSD, ALLSE, ALLWK, ETOTAL
*End Step
** ----------------------------------------------------------------
** 
** STEP: step_scan_28
** 
*Step, name=step_scan_28, nlgeom=YES, inc=999999
*Coupled Temperature-displacement, creep=none, deltmx=400.
0.001, 0.2, 2e-30, 0.01
** 
** LOADS
** 
** Name: load_body_hflux_28   Type: Body heat flux
*Dflux
inst_plate.set_body_heat_03, BF, 8e+10
** 
** OUTPUT REQUESTS
** 
*Restart, write, frequency=0
** 
** FIELD OUTPUT: F-Output-1
** 
*Output, field
*Node Output
NT, RF, U
*Element Output, directions=YES
HFL, PEEQ, S
** 
** HISTORY OUTPUT: H-Output-1
** 
*Output, history
*Energy Output
ALLAE, ALLIE, ALLKE, ALLPD, ALLSD, ALLSE, ALLWK, ETOTAL
*End Step
** ----------------------------------------------------------------
** 
** STEP: step_cool_28
** 
*Step, name=step_cool_28, nlgeom=YES, inc=999999
*Coupled Temperature-displacement, creep=none, deltmx=400.
0.1, 3.4, 3.4e-30, 0.2
** 
** LOADS
** 
** Name: load_body_hflux_28   Type: Body heat flux
*Dflux, op=NEW
** 
** OUTPUT REQUESTS
** 
*Restart, write, frequency=0
** 
** FIELD OUTPUT: F-Output-1
** 
*Output, field
*Node Output
NT, RF, U
*Element Output, directions=YES
HFL, PEEQ, S
** 
** HISTORY OUTPUT: H-Output-1
** 
*Output, history
*Energy Output
ALLAE, ALLIE, ALLKE, ALLPD, ALLSD, ALLSE, ALLWK, ETOTAL
*End Step
** ----------------------------------------------------------------
** 
** STEP: step_scan_29
** 
*Step, name=step_scan_29, nlgeom=YES, inc=999999
*Coupled Temperature-displacement, creep=none, deltmx=400.
0.001, 0.2, 2e-30, 0.01
** 
** LOADS
** 
** Name: load_body_hflux_29   Type: Body heat flux
*Dflux
inst_plate.set_body_heat_38, BF, 8e+10
** 
** OUTPUT REQUESTS
** 
*Restart, write, frequency=0
** 
** FIELD OUTPUT: F-Output-1
** 
*Output, field
*Node Output
NT, RF, U
*Element Output, directions=YES
HFL, PEEQ, S
** 
** HISTORY OUTPUT: H-Output-1
** 
*Output, history
*Energy Output
ALLAE, ALLIE, ALLKE, ALLPD, ALLSD, ALLSE, ALLWK, ETOTAL
*End Step
** ----------------------------------------------------------------
** 
** STEP: step_cool_29
** 
*Step, name=step_cool_29, nlgeom=YES, inc=999999
*Coupled Temperature-displacement, creep=none, deltmx=400.
0.1, 3.4, 3.4e-30, 0.2
** 
** LOADS
** 
** Name: load_body_hflux_29   Type: Body heat flux
*Dflux, op=NEW
** 
** OUTPUT REQUESTS
** 
*Restart, write, frequency=0
** 
** FIELD OUTPUT: F-Output-1
** 
*Output, field
*Node Output
NT, RF, U
*Element Output, directions=YES
HFL, PEEQ, S
** 
** HISTORY OUTPUT: H-Output-1
** 
*Output, history
*Energy Output
ALLAE, ALLIE, ALLKE, ALLPD, ALLSD, ALLSE, ALLWK, ETOTAL
*End Step
** ----------------------------------------------------------------
** 
** STEP: step_scan_30
** 
*Step, name=step_scan_30, nlgeom=YES, inc=999999
*Coupled Temperature-displacement, creep=none, deltmx=400.
0.001, 0.2, 2e-30, 0.01
** 
** LOADS
** 
** Name: load_body_hflux_30   Type: Body heat flux
*Dflux
inst_plate.set_body_heat_35, BF, 8e+10
** 
** OUTPUT REQUESTS
** 
*Restart, write, frequency=0
** 
** FIELD OUTPUT: F-Output-1
** 
*Output, field
*Node Output
NT, RF, U
*Element Output, directions=YES
HFL, PEEQ, S
** 
** HISTORY OUTPUT: H-Output-1
** 
*Output, history
*Energy Output
ALLAE, ALLIE, ALLKE, ALLPD, ALLSD, ALLSE, ALLWK, ETOTAL
*End Step
** ----------------------------------------------------------------
** 
** STEP: step_cool_30
** 
*Step, name=step_cool_30, nlgeom=YES, inc=999999
*Coupled Temperature-displacement, creep=none, deltmx=400.
0.1, 3.4, 3.4e-30, 0.2
** 
** LOADS
** 
** Name: load_body_hflux_30   Type: Body heat flux
*Dflux, op=NEW
** 
** OUTPUT REQUESTS
** 
*Restart, write, frequency=0
** 
** FIELD OUTPUT: F-Output-1
** 
*Output, field
*Node Output
NT, RF, U
*Element Output, directions=YES
HFL, PEEQ, S
** 
** HISTORY OUTPUT: H-Output-1
** 
*Output, history
*Energy Output
ALLAE, ALLIE, ALLKE, ALLPD, ALLSD, ALLSE, ALLWK, ETOTAL
*End Step
** ----------------------------------------------------------------
** 
** STEP: step_scan_31
** 
*Step, name=step_scan_31, nlgeom=YES, inc=999999
*Coupled Temperature-displacement, creep=none, deltmx=400.
0.001, 0.2, 2e-30, 0.01
** 
** LOADS
** 
** Name: load_body_hflux_31   Type: Body heat flux
*Dflux
inst_plate.set_body_heat_00, BF, 8e+10
** 
** OUTPUT REQUESTS
** 
*Restart, write, frequency=0
** 
** FIELD OUTPUT: F-Output-1
** 
*Output, field
*Node Output
NT, RF, U
*Element Output, directions=YES
HFL, PEEQ, S
** 
** HISTORY OUTPUT: H-Output-1
** 
*Output, history
*Energy Output
ALLAE, ALLIE, ALLKE, ALLPD, ALLSD, ALLSE, ALLWK, ETOTAL
*End Step
** ----------------------------------------------------------------
** 
** STEP: step_cool_31
** 
*Step, name=step_cool_31, nlgeom=YES, inc=999999
*Coupled Temperature-displacement, creep=none, deltmx=400.
0.1, 3.4, 3.4e-30, 0.2
** 
** LOADS
** 
** Name: load_body_hflux_31   Type: Body heat flux
*Dflux, op=NEW
** 
** OUTPUT REQUESTS
** 
*Restart, write, frequency=0
** 
** FIELD OUTPUT: F-Output-1
** 
*Output, field
*Node Output
NT, RF, U
*Element Output, directions=YES
HFL, PEEQ, S
** 
** HISTORY OUTPUT: H-Output-1
** 
*Output, history
*Energy Output
ALLAE, ALLIE, ALLKE, ALLPD, ALLSD, ALLSE, ALLWK, ETOTAL
*End Step
** ----------------------------------------------------------------
** 
** STEP: step_scan_32
** 
*Step, name=step_scan_32, nlgeom=YES, inc=999999
*Coupled Temperature-displacement, creep=none, deltmx=400.
0.001, 0.2, 2e-30, 0.01
** 
** LOADS
** 
** Name: load_body_hflux_32   Type: Body heat flux
*Dflux
inst_plate.set_body_heat_25, BF, 8e+10
** 
** OUTPUT REQUESTS
** 
*Restart, write, frequency=0
** 
** FIELD OUTPUT: F-Output-1
** 
*Output, field
*Node Output
NT, RF, U
*Element Output, directions=YES
HFL, PEEQ, S
** 
** HISTORY OUTPUT: H-Output-1
** 
*Output, history
*Energy Output
ALLAE, ALLIE, ALLKE, ALLPD, ALLSD, ALLSE, ALLWK, ETOTAL
*End Step
** ----------------------------------------------------------------
** 
** STEP: step_cool_32
** 
*Step, name=step_cool_32, nlgeom=YES, inc=999999
*Coupled Temperature-displacement, creep=none, deltmx=400.
0.1, 3.4, 3.4e-30, 0.2
** 
** LOADS
** 
** Name: load_body_hflux_32   Type: Body heat flux
*Dflux, op=NEW
** 
** OUTPUT REQUESTS
** 
*Restart, write, frequency=0
** 
** FIELD OUTPUT: F-Output-1
** 
*Output, field
*Node Output
NT, RF, U
*Element Output, directions=YES
HFL, PEEQ, S
** 
** HISTORY OUTPUT: H-Output-1
** 
*Output, history
*Energy Output
ALLAE, ALLIE, ALLKE, ALLPD, ALLSD, ALLSE, ALLWK, ETOTAL
*End Step
** ----------------------------------------------------------------
** 
** STEP: step_scan_33
** 
*Step, name=step_scan_33, nlgeom=YES, inc=999999
*Coupled Temperature-displacement, creep=none, deltmx=400.
0.001, 0.2, 2e-30, 0.01
** 
** LOADS
** 
** Name: load_body_hflux_33   Type: Body heat flux
*Dflux
inst_plate.set_body_heat_02, BF, 8e+10
** 
** OUTPUT REQUESTS
** 
*Restart, write, frequency=0
** 
** FIELD OUTPUT: F-Output-1
** 
*Output, field
*Node Output
NT, RF, U
*Element Output, directions=YES
HFL, PEEQ, S
** 
** HISTORY OUTPUT: H-Output-1
** 
*Output, history
*Energy Output
ALLAE, ALLIE, ALLKE, ALLPD, ALLSD, ALLSE, ALLWK, ETOTAL
*End Step
** ----------------------------------------------------------------
** 
** STEP: step_cool_33
** 
*Step, name=step_cool_33, nlgeom=YES, inc=999999
*Coupled Temperature-displacement, creep=none, deltmx=400.
0.1, 3.4, 3.4e-30, 0.2
** 
** LOADS
** 
** Name: load_body_hflux_33   Type: Body heat flux
*Dflux, op=NEW
** 
** OUTPUT REQUESTS
** 
*Restart, write, frequency=0
** 
** FIELD OUTPUT: F-Output-1
** 
*Output, field
*Node Output
NT, RF, U
*Element Output, directions=YES
HFL, PEEQ, S
** 
** HISTORY OUTPUT: H-Output-1
** 
*Output, history
*Energy Output
ALLAE, ALLIE, ALLKE, ALLPD, ALLSD, ALLSE, ALLWK, ETOTAL
*End Step
** ----------------------------------------------------------------
** 
** STEP: step_scan_34
** 
*Step, name=step_scan_34, nlgeom=YES, inc=999999
*Coupled Temperature-displacement, creep=none, deltmx=400.
0.001, 0.2, 2e-30, 0.01
** 
** LOADS
** 
** Name: load_body_hflux_34   Type: Body heat flux
*Dflux
inst_plate.set_body_heat_27, BF, 8e+10
** 
** OUTPUT REQUESTS
** 
*Restart, write, frequency=0
** 
** FIELD OUTPUT: F-Output-1
** 
*Output, field
*Node Output
NT, RF, U
*Element Output, directions=YES
HFL, PEEQ, S
** 
** HISTORY OUTPUT: H-Output-1
** 
*Output, history
*Energy Output
ALLAE, ALLIE, ALLKE, ALLPD, ALLSD, ALLSE, ALLWK, ETOTAL
*End Step
** ----------------------------------------------------------------
** 
** STEP: step_cool_34
** 
*Step, name=step_cool_34, nlgeom=YES, inc=999999
*Coupled Temperature-displacement, creep=none, deltmx=400.
0.1, 3.4, 3.4e-30, 0.2
** 
** LOADS
** 
** Name: load_body_hflux_34   Type: Body heat flux
*Dflux, op=NEW
** 
** OUTPUT REQUESTS
** 
*Restart, write, frequency=0
** 
** FIELD OUTPUT: F-Output-1
** 
*Output, field
*Node Output
NT, RF, U
*Element Output, directions=YES
HFL, PEEQ, S
** 
** HISTORY OUTPUT: H-Output-1
** 
*Output, history
*Energy Output
ALLAE, ALLIE, ALLKE, ALLPD, ALLSD, ALLSE, ALLWK, ETOTAL
*End Step
** ----------------------------------------------------------------
** 
** STEP: step_scan_35
** 
*Step, name=step_scan_35, nlgeom=YES, inc=999999
*Coupled Temperature-displacement, creep=none, deltmx=400.
0.001, 0.2, 2e-30, 0.01
** 
** LOADS
** 
** Name: load_body_hflux_35   Type: Body heat flux
*Dflux
inst_plate.set_body_heat_36, BF, 8e+10
** 
** OUTPUT REQUESTS
** 
*Restart, write, frequency=0
** 
** FIELD OUTPUT: F-Output-1
** 
*Output, field
*Node Output
NT, RF, U
*Element Output, directions=YES
HFL, PEEQ, S
** 
** HISTORY OUTPUT: H-Output-1
** 
*Output, history
*Energy Output
ALLAE, ALLIE, ALLKE, ALLPD, ALLSD, ALLSE, ALLWK, ETOTAL
*End Step
** ----------------------------------------------------------------
** 
** STEP: step_cool_35
** 
*Step, name=step_cool_35, nlgeom=YES, inc=999999
*Coupled Temperature-displacement, creep=none, deltmx=400.
0.1, 3.4, 3.4e-30, 0.2
** 
** LOADS
** 
** Name: load_body_hflux_35   Type: Body heat flux
*Dflux, op=NEW
** 
** OUTPUT REQUESTS
** 
*Restart, write, frequency=0
** 
** FIELD OUTPUT: F-Output-1
** 
*Output, field
*Node Output
NT, RF, U
*Element Output, directions=YES
HFL, PEEQ, S
** 
** HISTORY OUTPUT: H-Output-1
** 
*Output, history
*Energy Output
ALLAE, ALLIE, ALLKE, ALLPD, ALLSD, ALLSE, ALLWK, ETOTAL
*End Step
** ----------------------------------------------------------------
** 
** STEP: step_scan_36
** 
*Step, name=step_scan_36, nlgeom=YES, inc=999999
*Coupled Temperature-displacement, creep=none, deltmx=400.
0.001, 0.2, 2e-30, 0.01
** 
** LOADS
** 
** Name: load_body_hflux_36   Type: Body heat flux
*Dflux
inst_plate.set_body_heat_15, BF, 8e+10
** 
** OUTPUT REQUESTS
** 
*Restart, write, frequency=0
** 
** FIELD OUTPUT: F-Output-1
** 
*Output, field
*Node Output
NT, RF, U
*Element Output, directions=YES
HFL, PEEQ, S
** 
** HISTORY OUTPUT: H-Output-1
** 
*Output, history
*Energy Output
ALLAE, ALLIE, ALLKE, ALLPD, ALLSD, ALLSE, ALLWK, ETOTAL
*End Step
** ----------------------------------------------------------------
** 
** STEP: step_cool_36
** 
*Step, name=step_cool_36, nlgeom=YES, inc=999999
*Coupled Temperature-displacement, creep=none, deltmx=400.
0.1, 3.4, 3.4e-30, 0.2
** 
** LOADS
** 
** Name: load_body_hflux_36   Type: Body heat flux
*Dflux, op=NEW
** 
** OUTPUT REQUESTS
** 
*Restart, write, frequency=0
** 
** FIELD OUTPUT: F-Output-1
** 
*Output, field
*Node Output
NT, RF, U
*Element Output, directions=YES
HFL, PEEQ, S
** 
** HISTORY OUTPUT: H-Output-1
** 
*Output, history
*Energy Output
ALLAE, ALLIE, ALLKE, ALLPD, ALLSD, ALLSE, ALLWK, ETOTAL
*End Step
** ----------------------------------------------------------------
** 
** STEP: step_scan_37
** 
*Step, name=step_scan_37, nlgeom=YES, inc=999999
*Coupled Temperature-displacement, creep=none, deltmx=400.
0.001, 0.2, 2e-30, 0.01
** 
** LOADS
** 
** Name: load_body_hflux_37   Type: Body heat flux
*Dflux
inst_plate.set_body_heat_06, BF, 8e+10
** 
** OUTPUT REQUESTS
** 
*Restart, write, frequency=0
** 
** FIELD OUTPUT: F-Output-1
** 
*Output, field
*Node Output
NT, RF, U
*Element Output, directions=YES
HFL, PEEQ, S
** 
** HISTORY OUTPUT: H-Output-1
** 
*Output, history
*Energy Output
ALLAE, ALLIE, ALLKE, ALLPD, ALLSD, ALLSE, ALLWK, ETOTAL
*End Step
** ----------------------------------------------------------------
** 
** STEP: step_cool_37
** 
*Step, name=step_cool_37, nlgeom=YES, inc=999999
*Coupled Temperature-displacement, creep=none, deltmx=400.
0.1, 3.4, 3.4e-30, 0.2
** 
** LOADS
** 
** Name: load_body_hflux_37   Type: Body heat flux
*Dflux, op=NEW
** 
** OUTPUT REQUESTS
** 
*Restart, write, frequency=0
** 
** FIELD OUTPUT: F-Output-1
** 
*Output, field
*Node Output
NT, RF, U
*Element Output, directions=YES
HFL, PEEQ, S
** 
** HISTORY OUTPUT: H-Output-1
** 
*Output, history
*Energy Output
ALLAE, ALLIE, ALLKE, ALLPD, ALLSD, ALLSE, ALLWK, ETOTAL
*End Step
** ----------------------------------------------------------------
** 
** STEP: step_scan_38
** 
*Step, name=step_scan_38, nlgeom=YES, inc=999999
*Coupled Temperature-displacement, creep=none, deltmx=400.
0.001, 0.2, 2e-30, 0.01
** 
** LOADS
** 
** Name: load_body_hflux_38   Type: Body heat flux
*Dflux
inst_plate.set_body_heat_21, BF, 8e+10
** 
** OUTPUT REQUESTS
** 
*Restart, write, frequency=0
** 
** FIELD OUTPUT: F-Output-1
** 
*Output, field
*Node Output
NT, RF, U
*Element Output, directions=YES
HFL, PEEQ, S
** 
** HISTORY OUTPUT: H-Output-1
** 
*Output, history
*Energy Output
ALLAE, ALLIE, ALLKE, ALLPD, ALLSD, ALLSE, ALLWK, ETOTAL
*End Step
** ----------------------------------------------------------------
** 
** STEP: step_cool_38
** 
*Step, name=step_cool_38, nlgeom=YES, inc=999999
*Coupled Temperature-displacement, creep=none, deltmx=400.
0.1, 3.4, 3.4e-30, 0.2
** 
** LOADS
** 
** Name: load_body_hflux_38   Type: Body heat flux
*Dflux, op=NEW
** 
** OUTPUT REQUESTS
** 
*Restart, write, frequency=0
** 
** FIELD OUTPUT: F-Output-1
** 
*Output, field
*Node Output
NT, RF, U
*Element Output, directions=YES
HFL, PEEQ, S
** 
** HISTORY OUTPUT: H-Output-1
** 
*Output, history
*Energy Output
ALLAE, ALLIE, ALLKE, ALLPD, ALLSD, ALLSE, ALLWK, ETOTAL
*End Step
** ----------------------------------------------------------------
** 
** STEP: step_scan_39
** 
*Step, name=step_scan_39, nlgeom=YES, inc=999999
*Coupled Temperature-displacement, creep=none, deltmx=400.
0.001, 0.2, 2e-30, 0.01
** 
** LOADS
** 
** Name: load_body_hflux_39   Type: Body heat flux
*Dflux
inst_plate.set_body_heat_26, BF, 8e+10
** 
** OUTPUT REQUESTS
** 
*Restart, write, frequency=0
** 
** FIELD OUTPUT: F-Output-1
** 
*Output, field
*Node Output
NT, RF, U
*Element Output, directions=YES
HFL, PEEQ, S
** 
** HISTORY OUTPUT: H-Output-1
** 
*Output, history
*Energy Output
ALLAE, ALLIE, ALLKE, ALLPD, ALLSD, ALLSE, ALLWK, ETOTAL
*End Step
** ----------------------------------------------------------------
** 
** STEP: step_cool_39
** 
*Step, name=step_cool_39, nlgeom=YES, inc=999999
*Coupled Temperature-displacement, creep=none, deltmx=400.
0.1, 3.4, 3.4e-30, 0.2
** 
** LOADS
** 
** Name: load_body_hflux_39   Type: Body heat flux
*Dflux, op=NEW
** 
** OUTPUT REQUESTS
** 
*Restart, write, frequency=0
** 
** FIELD OUTPUT: F-Output-1
** 
*Output, field
*Node Output
NT, RF, U
*Element Output, directions=YES
HFL, PEEQ, S
** 
** HISTORY OUTPUT: H-Output-1
** 
*Output, history
*Energy Output
ALLAE, ALLIE, ALLKE, ALLPD, ALLSD, ALLSE, ALLWK, ETOTAL
*End Step
** ----------------------------------------------------------------
** 
** STEP: step_final_cooling
** 
*Step, name=step_final_cooling, nlgeom=YES, inc=999999
*Coupled Temperature-displacement, creep=none, deltmx=400.
0.01, 1200., 3.4e-30, 60.
** 
** OUTPUT REQUESTS
** 
*Restart, write, frequency=0
** 
** FIELD OUTPUT: F-Output-1
** 
*Output, field
*Node Output
NT, RF, U
*Element Output, directions=YES
HFL, PEEQ, S
** 
** HISTORY OUTPUT: H-Output-1
** 
*Output, history
*Energy Output
ALLAE, ALLIE, ALLKE, ALLPD, ALLSD, ALLSE, ALLWK, ETOTAL
*End Step
